<?xml version="1.0" encoding="UTF-8"?>
<configuration>
    <input>
       <net-file value="Cross_3_3.net.xml"/>
       <route-files value="Cross12.rou.xml"/>
       <additional-files value="rerouter.xml, trafficLight.add.xml"/>
    </input>
</configuration>