<routes>
        <vType id="Cartype" accel="0.8" decel="4.5" sigma="0.5" length="5" minGap="2.5" maxSpeed="16.67"         guiShape="passenger"/>
         
        <route id="carflow1" edges="2NS1 2NS1_1" />
        <route id="carflow2" edges="2SN1 2SN1_1" />
        <route id="carflow3" edges="2WO1 2WO1_1" />
        <route id="carflow4" edges="2OW1 2OW1_1" />
    <vehicle id="0" type="Cartype" route="carflow3" depart="0" />
    <vehicle id="1" type="Cartype" route="carflow2" depart="1" />
    <vehicle id="2" type="Cartype" route="carflow3" depart="1" />
    <vehicle id="3" type="Cartype" route="carflow1" depart="2" />
    <vehicle id="4" type="Cartype" route="carflow1" depart="4" />
    <vehicle id="5" type="Cartype" route="carflow1" depart="4" />
    <vehicle id="6" type="Cartype" route="carflow3" depart="4" />
    <vehicle id="7" type="Cartype" route="carflow4" depart="4" />
    <vehicle id="8" type="Cartype" route="carflow2" depart="7" />
    <vehicle id="9" type="Cartype" route="carflow3" depart="7" />
    <vehicle id="10" type="Cartype" route="carflow4" depart="7" />
    <vehicle id="11" type="Cartype" route="carflow1" depart="9" />
    <vehicle id="12" type="Cartype" route="carflow3" depart="9" />
    <vehicle id="13" type="Cartype" route="carflow4" depart="9" />
    <vehicle id="14" type="Cartype" route="carflow4" depart="9" />
    <vehicle id="15" type="Cartype" route="carflow2" depart="11" />
    <vehicle id="16" type="Cartype" route="carflow4" depart="11" />
    <vehicle id="17" type="Cartype" route="carflow4" depart="12" />
    <vehicle id="18" type="Cartype" route="carflow1" depart="13" />
    <vehicle id="19" type="Cartype" route="carflow3" depart="13" />
    <vehicle id="20" type="Cartype" route="carflow4" depart="13" />
    <vehicle id="21" type="Cartype" route="carflow4" depart="14" />
    <vehicle id="22" type="Cartype" route="carflow2" depart="16" />
    <vehicle id="23" type="Cartype" route="carflow2" depart="17" />
    <vehicle id="24" type="Cartype" route="carflow3" depart="17" />
    <vehicle id="25" type="Cartype" route="carflow3" depart="17" />
    <vehicle id="26" type="Cartype" route="carflow4" depart="17" />
    <vehicle id="27" type="Cartype" route="carflow4" depart="20" />
    <vehicle id="28" type="Cartype" route="carflow4" depart="21" />
    <vehicle id="29" type="Cartype" route="carflow3" depart="25" />
    <vehicle id="30" type="Cartype" route="carflow4" depart="25" />
    <vehicle id="31" type="Cartype" route="carflow3" depart="26" />
    <vehicle id="32" type="Cartype" route="carflow3" depart="26" />
    <vehicle id="33" type="Cartype" route="carflow3" depart="27" />
    <vehicle id="34" type="Cartype" route="carflow1" depart="28" />
    <vehicle id="35" type="Cartype" route="carflow2" depart="28" />
    <vehicle id="36" type="Cartype" route="carflow2" depart="29" />
    <vehicle id="37" type="Cartype" route="carflow3" depart="29" />
    <vehicle id="38" type="Cartype" route="carflow4" depart="30" />
    <vehicle id="39" type="Cartype" route="carflow2" depart="31" />
    <vehicle id="40" type="Cartype" route="carflow3" depart="31" />
    <vehicle id="41" type="Cartype" route="carflow1" depart="32" />
    <vehicle id="42" type="Cartype" route="carflow3" depart="32" />
    <vehicle id="43" type="Cartype" route="carflow3" depart="33" />
    <vehicle id="44" type="Cartype" route="carflow4" depart="33" />
    <vehicle id="45" type="Cartype" route="carflow1" depart="34" />
    <vehicle id="46" type="Cartype" route="carflow2" depart="34" />
    <vehicle id="47" type="Cartype" route="carflow2" depart="34" />
    <vehicle id="48" type="Cartype" route="carflow2" depart="34" />
    <vehicle id="49" type="Cartype" route="carflow4" depart="34" />
    <vehicle id="50" type="Cartype" route="carflow2" depart="35" />
    <vehicle id="51" type="Cartype" route="carflow2" depart="36" />
    <vehicle id="52" type="Cartype" route="carflow2" depart="36" />
    <vehicle id="53" type="Cartype" route="carflow4" depart="36" />
    <vehicle id="54" type="Cartype" route="carflow1" depart="37" />
    <vehicle id="55" type="Cartype" route="carflow2" depart="37" />
    <vehicle id="56" type="Cartype" route="carflow3" depart="37" />
    <vehicle id="57" type="Cartype" route="carflow4" depart="37" />
    <vehicle id="58" type="Cartype" route="carflow4" depart="39" />
    <vehicle id="59" type="Cartype" route="carflow2" depart="40" />
    <vehicle id="60" type="Cartype" route="carflow1" depart="42" />
    <vehicle id="61" type="Cartype" route="carflow3" depart="42" />
    <vehicle id="62" type="Cartype" route="carflow4" depart="44" />
    <vehicle id="63" type="Cartype" route="carflow3" depart="45" />
    <vehicle id="64" type="Cartype" route="carflow3" depart="46" />
    <vehicle id="65" type="Cartype" route="carflow1" depart="50" />
    <vehicle id="66" type="Cartype" route="carflow1" depart="50" />
    <vehicle id="67" type="Cartype" route="carflow2" depart="50" />
    <vehicle id="68" type="Cartype" route="carflow2" depart="50" />
    <vehicle id="69" type="Cartype" route="carflow1" depart="51" />
    <vehicle id="70" type="Cartype" route="carflow1" depart="54" />
    <vehicle id="71" type="Cartype" route="carflow3" depart="55" />
    <vehicle id="72" type="Cartype" route="carflow4" depart="55" />
    <vehicle id="73" type="Cartype" route="carflow2" depart="56" />
    <vehicle id="74" type="Cartype" route="carflow3" depart="56" />
    <vehicle id="75" type="Cartype" route="carflow3" depart="56" />
    <vehicle id="76" type="Cartype" route="carflow1" depart="58" />
    <vehicle id="77" type="Cartype" route="carflow1" depart="59" />
    <vehicle id="78" type="Cartype" route="carflow3" depart="60" />
    <vehicle id="79" type="Cartype" route="carflow2" depart="62" />
    <vehicle id="80" type="Cartype" route="carflow1" depart="63" />
    <vehicle id="81" type="Cartype" route="carflow4" depart="63" />
    <vehicle id="82" type="Cartype" route="carflow3" depart="64" />
    <vehicle id="83" type="Cartype" route="carflow2" depart="65" />
    <vehicle id="84" type="Cartype" route="carflow2" depart="66" />
    <vehicle id="85" type="Cartype" route="carflow1" depart="67" />
    <vehicle id="86" type="Cartype" route="carflow1" depart="68" />
    <vehicle id="87" type="Cartype" route="carflow1" depart="69" />
    <vehicle id="88" type="Cartype" route="carflow3" depart="69" />
    <vehicle id="89" type="Cartype" route="carflow4" depart="69" />
    <vehicle id="90" type="Cartype" route="carflow1" depart="70" />
    <vehicle id="91" type="Cartype" route="carflow2" depart="70" />
    <vehicle id="92" type="Cartype" route="carflow4" depart="70" />
    <vehicle id="93" type="Cartype" route="carflow3" depart="71" />
    <vehicle id="94" type="Cartype" route="carflow4" depart="72" />
    <vehicle id="95" type="Cartype" route="carflow1" depart="73" />
    <vehicle id="96" type="Cartype" route="carflow3" depart="73" />
    <vehicle id="97" type="Cartype" route="carflow4" depart="74" />
    <vehicle id="98" type="Cartype" route="carflow1" depart="75" />
    <vehicle id="99" type="Cartype" route="carflow1" depart="76" />
    <vehicle id="100" type="Cartype" route="carflow3" depart="76" />
    <vehicle id="101" type="Cartype" route="carflow3" depart="76" />
    <vehicle id="102" type="Cartype" route="carflow4" depart="76" />
    <vehicle id="103" type="Cartype" route="carflow4" depart="76" />
    <vehicle id="104" type="Cartype" route="carflow1" depart="77" />
    <vehicle id="105" type="Cartype" route="carflow2" depart="77" />
    <vehicle id="106" type="Cartype" route="carflow2" depart="79" />
    <vehicle id="107" type="Cartype" route="carflow1" depart="80" />
    <vehicle id="108" type="Cartype" route="carflow2" depart="80" />
    <vehicle id="109" type="Cartype" route="carflow2" depart="80" />
    <vehicle id="110" type="Cartype" route="carflow2" depart="80" />
    <vehicle id="111" type="Cartype" route="carflow3" depart="80" />
    <vehicle id="112" type="Cartype" route="carflow4" depart="80" />
    <vehicle id="113" type="Cartype" route="carflow1" depart="81" />
    <vehicle id="114" type="Cartype" route="carflow4" depart="81" />
    <vehicle id="115" type="Cartype" route="carflow4" depart="81" />
    <vehicle id="116" type="Cartype" route="carflow2" depart="82" />
    <vehicle id="117" type="Cartype" route="carflow2" depart="82" />
    <vehicle id="118" type="Cartype" route="carflow2" depart="82" />
    <vehicle id="119" type="Cartype" route="carflow1" depart="83" />
    <vehicle id="120" type="Cartype" route="carflow4" depart="83" />
    <vehicle id="121" type="Cartype" route="carflow2" depart="84" />
    <vehicle id="122" type="Cartype" route="carflow4" depart="85" />
    <vehicle id="123" type="Cartype" route="carflow3" depart="86" />
    <vehicle id="124" type="Cartype" route="carflow4" depart="86" />
    <vehicle id="125" type="Cartype" route="carflow1" depart="88" />
    <vehicle id="126" type="Cartype" route="carflow2" depart="89" />
    <vehicle id="127" type="Cartype" route="carflow1" depart="90" />
    <vehicle id="128" type="Cartype" route="carflow2" depart="90" />
    <vehicle id="129" type="Cartype" route="carflow3" depart="91" />
    <vehicle id="130" type="Cartype" route="carflow4" depart="91" />
    <vehicle id="131" type="Cartype" route="carflow4" depart="91" />
    <vehicle id="132" type="Cartype" route="carflow1" depart="92" />
    <vehicle id="133" type="Cartype" route="carflow2" depart="92" />
    <vehicle id="134" type="Cartype" route="carflow3" depart="93" />
    <vehicle id="135" type="Cartype" route="carflow1" depart="94" />
    <vehicle id="136" type="Cartype" route="carflow4" depart="94" />
    <vehicle id="137" type="Cartype" route="carflow3" depart="95" />
    <vehicle id="138" type="Cartype" route="carflow1" depart="96" />
    <vehicle id="139" type="Cartype" route="carflow1" depart="96" />
    <vehicle id="140" type="Cartype" route="carflow2" depart="96" />
    <vehicle id="141" type="Cartype" route="carflow1" depart="97" />
    <vehicle id="142" type="Cartype" route="carflow4" depart="97" />
    <vehicle id="143" type="Cartype" route="carflow1" depart="98" />
    <vehicle id="144" type="Cartype" route="carflow2" depart="98" />
    <vehicle id="145" type="Cartype" route="carflow1" depart="99" />
    <vehicle id="146" type="Cartype" route="carflow3" depart="99" />
    <vehicle id="147" type="Cartype" route="carflow1" depart="100" />
    <vehicle id="148" type="Cartype" route="carflow1" depart="101" />
    <vehicle id="149" type="Cartype" route="carflow4" depart="101" />
    <vehicle id="150" type="Cartype" route="carflow2" depart="102" />
    <vehicle id="151" type="Cartype" route="carflow2" depart="103" />
    <vehicle id="152" type="Cartype" route="carflow3" depart="103" />
    <vehicle id="153" type="Cartype" route="carflow2" depart="104" />
    <vehicle id="154" type="Cartype" route="carflow4" depart="106" />
    <vehicle id="155" type="Cartype" route="carflow2" depart="108" />
    <vehicle id="156" type="Cartype" route="carflow2" depart="110" />
    <vehicle id="157" type="Cartype" route="carflow1" depart="111" />
    <vehicle id="158" type="Cartype" route="carflow4" depart="112" />
    <vehicle id="159" type="Cartype" route="carflow1" depart="115" />
    <vehicle id="160" type="Cartype" route="carflow1" depart="117" />
    <vehicle id="161" type="Cartype" route="carflow3" depart="117" />
    <vehicle id="162" type="Cartype" route="carflow4" depart="117" />
    <vehicle id="163" type="Cartype" route="carflow2" depart="118" />
    <vehicle id="164" type="Cartype" route="carflow1" depart="119" />
    <vehicle id="165" type="Cartype" route="carflow1" depart="119" />
    <vehicle id="166" type="Cartype" route="carflow1" depart="120" />
    <vehicle id="167" type="Cartype" route="carflow2" depart="121" />
    <vehicle id="168" type="Cartype" route="carflow4" depart="124" />
    <vehicle id="169" type="Cartype" route="carflow3" depart="125" />
    <vehicle id="170" type="Cartype" route="carflow4" depart="126" />
    <vehicle id="171" type="Cartype" route="carflow2" depart="127" />
    <vehicle id="172" type="Cartype" route="carflow3" depart="128" />
    <vehicle id="173" type="Cartype" route="carflow1" depart="130" />
    <vehicle id="174" type="Cartype" route="carflow1" depart="130" />
    <vehicle id="175" type="Cartype" route="carflow2" depart="130" />
    <vehicle id="176" type="Cartype" route="carflow3" depart="130" />
    <vehicle id="177" type="Cartype" route="carflow3" depart="131" />
    <vehicle id="178" type="Cartype" route="carflow3" depart="131" />
    <vehicle id="179" type="Cartype" route="carflow4" depart="132" />
    <vehicle id="180" type="Cartype" route="carflow4" depart="133" />
    <vehicle id="181" type="Cartype" route="carflow3" depart="134" />
    <vehicle id="182" type="Cartype" route="carflow4" depart="135" />
    <vehicle id="183" type="Cartype" route="carflow3" depart="136" />
    <vehicle id="184" type="Cartype" route="carflow3" depart="137" />
    <vehicle id="185" type="Cartype" route="carflow4" depart="137" />
    <vehicle id="186" type="Cartype" route="carflow1" depart="138" />
    <vehicle id="187" type="Cartype" route="carflow2" depart="139" />
    <vehicle id="188" type="Cartype" route="carflow4" depart="141" />
    <vehicle id="189" type="Cartype" route="carflow3" depart="142" />
    <vehicle id="190" type="Cartype" route="carflow1" depart="143" />
    <vehicle id="191" type="Cartype" route="carflow1" depart="143" />
    <vehicle id="192" type="Cartype" route="carflow1" depart="143" />
    <vehicle id="193" type="Cartype" route="carflow1" depart="144" />
    <vehicle id="194" type="Cartype" route="carflow3" depart="144" />
    <vehicle id="195" type="Cartype" route="carflow3" depart="145" />
    <vehicle id="196" type="Cartype" route="carflow2" depart="146" />
    <vehicle id="197" type="Cartype" route="carflow3" depart="146" />
    <vehicle id="198" type="Cartype" route="carflow4" depart="146" />
    <vehicle id="199" type="Cartype" route="carflow3" depart="147" />
    <vehicle id="200" type="Cartype" route="carflow1" depart="151" />
    <vehicle id="201" type="Cartype" route="carflow1" depart="151" />
    <vehicle id="202" type="Cartype" route="carflow2" depart="151" />
    <vehicle id="203" type="Cartype" route="carflow1" depart="152" />
    <vehicle id="204" type="Cartype" route="carflow2" depart="152" />
    <vehicle id="205" type="Cartype" route="carflow3" depart="153" />
    <vehicle id="206" type="Cartype" route="carflow1" depart="155" />
    <vehicle id="207" type="Cartype" route="carflow2" depart="155" />
    <vehicle id="208" type="Cartype" route="carflow4" depart="156" />
    <vehicle id="209" type="Cartype" route="carflow1" depart="157" />
    <vehicle id="210" type="Cartype" route="carflow4" depart="157" />
    <vehicle id="211" type="Cartype" route="carflow3" depart="158" />
    <vehicle id="212" type="Cartype" route="carflow3" depart="159" />
    <vehicle id="213" type="Cartype" route="carflow4" depart="160" />
    <vehicle id="214" type="Cartype" route="carflow2" depart="161" />
    <vehicle id="215" type="Cartype" route="carflow3" depart="161" />
    <vehicle id="216" type="Cartype" route="carflow3" depart="161" />
    <vehicle id="217" type="Cartype" route="carflow1" depart="162" />
    <vehicle id="218" type="Cartype" route="carflow3" depart="162" />
    <vehicle id="219" type="Cartype" route="carflow2" depart="164" />
    <vehicle id="220" type="Cartype" route="carflow3" depart="164" />
    <vehicle id="221" type="Cartype" route="carflow4" depart="165" />
    <vehicle id="222" type="Cartype" route="carflow3" depart="166" />
    <vehicle id="223" type="Cartype" route="carflow4" depart="166" />
    <vehicle id="224" type="Cartype" route="carflow3" depart="167" />
    <vehicle id="225" type="Cartype" route="carflow2" depart="168" />
    <vehicle id="226" type="Cartype" route="carflow3" depart="168" />
    <vehicle id="227" type="Cartype" route="carflow4" depart="168" />
    <vehicle id="228" type="Cartype" route="carflow3" depart="169" />
    <vehicle id="229" type="Cartype" route="carflow4" depart="169" />
    <vehicle id="230" type="Cartype" route="carflow4" depart="169" />
    <vehicle id="231" type="Cartype" route="carflow4" depart="170" />
    <vehicle id="232" type="Cartype" route="carflow3" depart="171" />
    <vehicle id="233" type="Cartype" route="carflow4" depart="171" />
    <vehicle id="234" type="Cartype" route="carflow3" depart="173" />
    <vehicle id="235" type="Cartype" route="carflow2" depart="174" />
    <vehicle id="236" type="Cartype" route="carflow3" depart="176" />
    <vehicle id="237" type="Cartype" route="carflow4" depart="176" />
    <vehicle id="238" type="Cartype" route="carflow4" depart="177" />
    <vehicle id="239" type="Cartype" route="carflow1" depart="178" />
    <vehicle id="240" type="Cartype" route="carflow2" depart="178" />
    <vehicle id="241" type="Cartype" route="carflow3" depart="179" />
    <vehicle id="242" type="Cartype" route="carflow1" depart="181" />
    <vehicle id="243" type="Cartype" route="carflow4" depart="181" />
    <vehicle id="244" type="Cartype" route="carflow1" depart="183" />
    <vehicle id="245" type="Cartype" route="carflow1" depart="184" />
    <vehicle id="246" type="Cartype" route="carflow2" depart="184" />
    <vehicle id="247" type="Cartype" route="carflow2" depart="184" />
    <vehicle id="248" type="Cartype" route="carflow3" depart="184" />
    <vehicle id="249" type="Cartype" route="carflow2" depart="187" />
    <vehicle id="250" type="Cartype" route="carflow1" depart="189" />
    <vehicle id="251" type="Cartype" route="carflow2" depart="191" />
    <vehicle id="252" type="Cartype" route="carflow3" depart="191" />
    <vehicle id="253" type="Cartype" route="carflow4" depart="192" />
    <vehicle id="254" type="Cartype" route="carflow2" depart="193" />
    <vehicle id="255" type="Cartype" route="carflow3" depart="193" />
    <vehicle id="256" type="Cartype" route="carflow3" depart="193" />
    <vehicle id="257" type="Cartype" route="carflow3" depart="194" />
    <vehicle id="258" type="Cartype" route="carflow1" depart="197" />
    <vehicle id="259" type="Cartype" route="carflow1" depart="198" />
    <vehicle id="260" type="Cartype" route="carflow4" depart="198" />
    <vehicle id="261" type="Cartype" route="carflow1" depart="199" />
    <vehicle id="262" type="Cartype" route="carflow2" depart="199" />
    <vehicle id="263" type="Cartype" route="carflow4" depart="200" />
    <vehicle id="264" type="Cartype" route="carflow3" depart="202" />
    <vehicle id="265" type="Cartype" route="carflow1" depart="203" />
    <vehicle id="266" type="Cartype" route="carflow3" depart="206" />
    <vehicle id="267" type="Cartype" route="carflow3" depart="207" />
    <vehicle id="268" type="Cartype" route="carflow3" depart="208" />
    <vehicle id="269" type="Cartype" route="carflow2" depart="210" />
    <vehicle id="270" type="Cartype" route="carflow4" depart="211" />
    <vehicle id="271" type="Cartype" route="carflow3" depart="212" />
    <vehicle id="272" type="Cartype" route="carflow4" depart="212" />
    <vehicle id="273" type="Cartype" route="carflow2" depart="215" />
    <vehicle id="274" type="Cartype" route="carflow3" depart="215" />
    <vehicle id="275" type="Cartype" route="carflow2" depart="216" />
    <vehicle id="276" type="Cartype" route="carflow1" depart="217" />
    <vehicle id="277" type="Cartype" route="carflow2" depart="217" />
    <vehicle id="278" type="Cartype" route="carflow3" depart="217" />
    <vehicle id="279" type="Cartype" route="carflow3" depart="217" />
    <vehicle id="280" type="Cartype" route="carflow1" depart="218" />
    <vehicle id="281" type="Cartype" route="carflow3" depart="219" />
    <vehicle id="282" type="Cartype" route="carflow3" depart="220" />
    <vehicle id="283" type="Cartype" route="carflow1" depart="221" />
    <vehicle id="284" type="Cartype" route="carflow1" depart="221" />
    <vehicle id="285" type="Cartype" route="carflow4" depart="221" />
    <vehicle id="286" type="Cartype" route="carflow1" depart="222" />
    <vehicle id="287" type="Cartype" route="carflow3" depart="222" />
    <vehicle id="288" type="Cartype" route="carflow4" depart="222" />
    <vehicle id="289" type="Cartype" route="carflow1" depart="223" />
    <vehicle id="290" type="Cartype" route="carflow3" depart="223" />
    <vehicle id="291" type="Cartype" route="carflow4" depart="223" />
    <vehicle id="292" type="Cartype" route="carflow1" depart="224" />
    <vehicle id="293" type="Cartype" route="carflow4" depart="224" />
    <vehicle id="294" type="Cartype" route="carflow1" depart="225" />
    <vehicle id="295" type="Cartype" route="carflow3" depart="226" />
    <vehicle id="296" type="Cartype" route="carflow4" depart="226" />
    <vehicle id="297" type="Cartype" route="carflow3" depart="228" />
    <vehicle id="298" type="Cartype" route="carflow4" depart="228" />
    <vehicle id="299" type="Cartype" route="carflow4" depart="229" />
    <vehicle id="300" type="Cartype" route="carflow4" depart="230" />
    <vehicle id="301" type="Cartype" route="carflow3" depart="233" />
    <vehicle id="302" type="Cartype" route="carflow3" depart="233" />
    <vehicle id="303" type="Cartype" route="carflow3" depart="234" />
    <vehicle id="304" type="Cartype" route="carflow3" depart="234" />
    <vehicle id="305" type="Cartype" route="carflow3" depart="234" />
    <vehicle id="306" type="Cartype" route="carflow1" depart="236" />
    <vehicle id="307" type="Cartype" route="carflow2" depart="236" />
    <vehicle id="308" type="Cartype" route="carflow3" depart="236" />
    <vehicle id="309" type="Cartype" route="carflow4" depart="236" />
    <vehicle id="310" type="Cartype" route="carflow2" depart="238" />
    <vehicle id="311" type="Cartype" route="carflow4" depart="239" />
    <vehicle id="312" type="Cartype" route="carflow3" depart="240" />
    <vehicle id="313" type="Cartype" route="carflow1" depart="241" />
    <vehicle id="314" type="Cartype" route="carflow2" depart="241" />
    <vehicle id="315" type="Cartype" route="carflow4" depart="241" />
    <vehicle id="316" type="Cartype" route="carflow4" depart="242" />
    <vehicle id="317" type="Cartype" route="carflow1" depart="243" />
    <vehicle id="318" type="Cartype" route="carflow1" depart="243" />
    <vehicle id="319" type="Cartype" route="carflow4" depart="243" />
    <vehicle id="320" type="Cartype" route="carflow1" depart="244" />
    <vehicle id="321" type="Cartype" route="carflow3" depart="245" />
    <vehicle id="322" type="Cartype" route="carflow4" depart="245" />
    <vehicle id="323" type="Cartype" route="carflow2" depart="248" />
    <vehicle id="324" type="Cartype" route="carflow2" depart="249" />
    <vehicle id="325" type="Cartype" route="carflow4" depart="249" />
    <vehicle id="326" type="Cartype" route="carflow4" depart="250" />
    <vehicle id="327" type="Cartype" route="carflow4" depart="252" />
    <vehicle id="328" type="Cartype" route="carflow1" depart="253" />
    <vehicle id="329" type="Cartype" route="carflow3" depart="253" />
    <vehicle id="330" type="Cartype" route="carflow1" depart="254" />
    <vehicle id="331" type="Cartype" route="carflow3" depart="254" />
    <vehicle id="332" type="Cartype" route="carflow2" depart="255" />
    <vehicle id="333" type="Cartype" route="carflow3" depart="255" />
    <vehicle id="334" type="Cartype" route="carflow4" depart="255" />
    <vehicle id="335" type="Cartype" route="carflow1" depart="256" />
    <vehicle id="336" type="Cartype" route="carflow1" depart="257" />
    <vehicle id="337" type="Cartype" route="carflow4" depart="257" />
    <vehicle id="338" type="Cartype" route="carflow2" depart="258" />
    <vehicle id="339" type="Cartype" route="carflow4" depart="258" />
    <vehicle id="340" type="Cartype" route="carflow4" depart="259" />
    <vehicle id="341" type="Cartype" route="carflow4" depart="260" />
    <vehicle id="342" type="Cartype" route="carflow2" depart="261" />
    <vehicle id="343" type="Cartype" route="carflow4" depart="263" />
    <vehicle id="344" type="Cartype" route="carflow3" depart="264" />
    <vehicle id="345" type="Cartype" route="carflow1" depart="265" />
    <vehicle id="346" type="Cartype" route="carflow1" depart="267" />
    <vehicle id="347" type="Cartype" route="carflow1" depart="267" />
    <vehicle id="348" type="Cartype" route="carflow1" depart="268" />
    <vehicle id="349" type="Cartype" route="carflow1" depart="268" />
    <vehicle id="350" type="Cartype" route="carflow3" depart="269" />
    <vehicle id="351" type="Cartype" route="carflow1" depart="271" />
    <vehicle id="352" type="Cartype" route="carflow3" depart="271" />
    <vehicle id="353" type="Cartype" route="carflow2" depart="272" />
    <vehicle id="354" type="Cartype" route="carflow3" depart="272" />
    <vehicle id="355" type="Cartype" route="carflow2" depart="275" />
    <vehicle id="356" type="Cartype" route="carflow3" depart="275" />
    <vehicle id="357" type="Cartype" route="carflow1" depart="276" />
    <vehicle id="358" type="Cartype" route="carflow4" depart="276" />
    <vehicle id="359" type="Cartype" route="carflow2" depart="277" />
    <vehicle id="360" type="Cartype" route="carflow4" depart="277" />
    <vehicle id="361" type="Cartype" route="carflow4" depart="279" />
    <vehicle id="362" type="Cartype" route="carflow1" depart="280" />
    <vehicle id="363" type="Cartype" route="carflow3" depart="280" />
    <vehicle id="364" type="Cartype" route="carflow1" depart="281" />
    <vehicle id="365" type="Cartype" route="carflow4" depart="281" />
    <vehicle id="366" type="Cartype" route="carflow2" depart="282" />
    <vehicle id="367" type="Cartype" route="carflow4" depart="282" />
    <vehicle id="368" type="Cartype" route="carflow1" depart="284" />
    <vehicle id="369" type="Cartype" route="carflow2" depart="285" />
    <vehicle id="370" type="Cartype" route="carflow1" depart="286" />
    <vehicle id="371" type="Cartype" route="carflow4" depart="286" />
    <vehicle id="372" type="Cartype" route="carflow1" depart="290" />
    <vehicle id="373" type="Cartype" route="carflow2" depart="290" />
    <vehicle id="374" type="Cartype" route="carflow3" depart="290" />
    <vehicle id="375" type="Cartype" route="carflow2" depart="291" />
    <vehicle id="376" type="Cartype" route="carflow4" depart="291" />
    <vehicle id="377" type="Cartype" route="carflow4" depart="293" />
    <vehicle id="378" type="Cartype" route="carflow2" depart="294" />
    <vehicle id="379" type="Cartype" route="carflow3" depart="294" />
    <vehicle id="380" type="Cartype" route="carflow3" depart="295" />
    <vehicle id="381" type="Cartype" route="carflow4" depart="295" />
    <vehicle id="382" type="Cartype" route="carflow1" depart="298" />
    <vehicle id="383" type="Cartype" route="carflow4" depart="299" />
    <vehicle id="384" type="Cartype" route="carflow1" depart="300" />
    <vehicle id="385" type="Cartype" route="carflow2" depart="300" />
    <vehicle id="386" type="Cartype" route="carflow3" depart="300" />
    <vehicle id="387" type="Cartype" route="carflow4" depart="300" />
    <vehicle id="388" type="Cartype" route="carflow2" depart="301" />
    <vehicle id="389" type="Cartype" route="carflow3" depart="301" />
    <vehicle id="390" type="Cartype" route="carflow3" depart="301" />
    <vehicle id="391" type="Cartype" route="carflow2" depart="302" />
    <vehicle id="392" type="Cartype" route="carflow2" depart="304" />
    <vehicle id="393" type="Cartype" route="carflow3" depart="304" />
    <vehicle id="394" type="Cartype" route="carflow1" depart="305" />
    <vehicle id="395" type="Cartype" route="carflow3" depart="306" />
    <vehicle id="396" type="Cartype" route="carflow3" depart="307" />
    <vehicle id="397" type="Cartype" route="carflow1" depart="309" />
    <vehicle id="398" type="Cartype" route="carflow2" depart="309" />
    <vehicle id="399" type="Cartype" route="carflow1" depart="310" />
    <vehicle id="400" type="Cartype" route="carflow3" depart="311" />
    <vehicle id="401" type="Cartype" route="carflow4" depart="311" />
    <vehicle id="402" type="Cartype" route="carflow1" depart="312" />
    <vehicle id="403" type="Cartype" route="carflow2" depart="312" />
    <vehicle id="404" type="Cartype" route="carflow2" depart="312" />
    <vehicle id="405" type="Cartype" route="carflow2" depart="312" />
    <vehicle id="406" type="Cartype" route="carflow4" depart="312" />
    <vehicle id="407" type="Cartype" route="carflow1" depart="313" />
    <vehicle id="408" type="Cartype" route="carflow4" depart="313" />
    <vehicle id="409" type="Cartype" route="carflow1" depart="314" />
    <vehicle id="410" type="Cartype" route="carflow3" depart="314" />
    <vehicle id="411" type="Cartype" route="carflow1" depart="315" />
    <vehicle id="412" type="Cartype" route="carflow1" depart="315" />
    <vehicle id="413" type="Cartype" route="carflow3" depart="315" />
    <vehicle id="414" type="Cartype" route="carflow3" depart="316" />
    <vehicle id="415" type="Cartype" route="carflow4" depart="316" />
    <vehicle id="416" type="Cartype" route="carflow1" depart="317" />
    <vehicle id="417" type="Cartype" route="carflow2" depart="317" />
    <vehicle id="418" type="Cartype" route="carflow2" depart="317" />
    <vehicle id="419" type="Cartype" route="carflow2" depart="318" />
    <vehicle id="420" type="Cartype" route="carflow1" depart="319" />
    <vehicle id="421" type="Cartype" route="carflow2" depart="324" />
    <vehicle id="422" type="Cartype" route="carflow3" depart="324" />
    <vehicle id="423" type="Cartype" route="carflow3" depart="324" />
    <vehicle id="424" type="Cartype" route="carflow2" depart="325" />
    <vehicle id="425" type="Cartype" route="carflow1" depart="326" />
    <vehicle id="426" type="Cartype" route="carflow1" depart="326" />