<routes>
        <vType id="Cartype" accel="0.8" decel="4.5" sigma="0.5" length="5" minGap="2.5" maxSpeed="16.67"         guiShape="passenger"/>
         
        <route id="carflow1" edges="2NS1 2NS1_1" />
        <route id="carflow2" edges="2SN1 2SN1_1" />
        <route id="carflow3" edges="2WO1 2WO1_1" />
        <route id="carflow4" edges="2OW1 2OW1_1" />
    <vehicle id="0" type="Cartype" route="carflow2" depart="46" />
    <vehicle id="1" type="Cartype" route="carflow4" depart="162" />
    <vehicle id="2" type="Cartype" route="carflow2" depart="230" />
    <vehicle id="3" type="Cartype" route="carflow4" depart="263" />
    <vehicle id="4" type="Cartype" route="carflow3" depart="413" />
    <vehicle id="5" type="Cartype" route="carflow3" depart="506" />
    <vehicle id="6" type="Cartype" route="carflow2" depart="513" />
    <vehicle id="7" type="Cartype" route="carflow4" depart="575" />
    <vehicle id="8" type="Cartype" route="carflow2" depart="876" />
    <vehicle id="9" type="Cartype" route="carflow3" depart="977" />
    <vehicle id="10" type="Cartype" route="carflow2" depart="1044" />
    <vehicle id="11" type="Cartype" route="carflow4" depart="1093" />
    <vehicle id="12" type="Cartype" route="carflow2" depart="1233" />
    <vehicle id="13" type="Cartype" route="carflow2" depart="1305" />
    <vehicle id="14" type="Cartype" route="carflow3" depart="1393" />
    <vehicle id="15" type="Cartype" route="carflow4" depart="1490" />
    <vehicle id="16" type="Cartype" route="carflow1" depart="1520" />
    <vehicle id="17" type="Cartype" route="carflow4" depart="1702" />
    <vehicle id="18" type="Cartype" route="carflow3" depart="1850" />
    <vehicle id="19" type="Cartype" route="carflow4" depart="2071" />
    <vehicle id="20" type="Cartype" route="carflow2" depart="2251" />
    <vehicle id="21" type="Cartype" route="carflow4" depart="2312" />
    <vehicle id="22" type="Cartype" route="carflow4" depart="2396" />
    <vehicle id="23" type="Cartype" route="carflow1" depart="2454" />
    <vehicle id="24" type="Cartype" route="carflow2" depart="2471" />
    <vehicle id="25" type="Cartype" route="carflow2" depart="2553" />
    <vehicle id="26" type="Cartype" route="carflow3" depart="2653" />
    <vehicle id="27" type="Cartype" route="carflow2" depart="2684" />
    <vehicle id="28" type="Cartype" route="carflow1" depart="2768" />
    <vehicle id="29" type="Cartype" route="carflow1" depart="2791" />
    <vehicle id="30" type="Cartype" route="carflow2" depart="2792" />
    <vehicle id="31" type="Cartype" route="carflow3" depart="2857" />
    <vehicle id="32" type="Cartype" route="carflow2" depart="3156" />
    <vehicle id="33" type="Cartype" route="carflow3" depart="3169" />
    <vehicle id="34" type="Cartype" route="carflow1" depart="3317" />
</routes>
