<?xml version="1.0" encoding="UTF-8"?> 
<additional>

	 <tlLogic id="C1" type="static" programID="1" offset="6.443323"> 
             <phase duration="30.867255" state="GGgrrrGGgrrr"/> 
             <phase duration="3"  state="yygrrryygrrr"/> 
             <phase duration="10.289085" state="rrGrrrrrGrrr"/> 
             <phase duration="3"  state="rryrrrrryrrr"/> 
             <phase duration="30.867255" state="rrrGGgrrrGGg"/> 
             <phase duration="3"  state="rrryygrrryyg"/> 
             <phase duration="10.289085" state="rrrrrGrrrrrG"/> 
             <phase duration="3"  state="rrrrryrrrrry"/> 
         </tlLogic> 

	 <tlLogic id="C2" type="static" programID="1" offset="3.945444"> 
             <phase duration="55.561059" state="GGgrrrGGgrrr"/> 
             <phase duration="3"  state="yygrrryygrrr"/> 
             <phase duration="18.520353" state="rrGrrrrrGrrr"/> 
             <phase duration="3"  state="rryrrrrryrrr"/> 
             <phase duration="6.173451" state="rrrGGgrrrGGg"/> 
             <phase duration="3"  state="rrryygrrryyg"/> 
             <phase duration="2.057817" state="rrrrrGrrrrrG"/> 
             <phase duration="3"  state="rrrrryrrrrry"/> 
         </tlLogic> 

	 <tlLogic id="C3" type="static" programID="1" offset="6.669831"> 
             <phase duration="30.867255" state="GGgrrrGGgrrr"/> 
             <phase duration="3"  state="yygrrryygrrr"/> 
             <phase duration="10.289085" state="rrGrrrrrGrrr"/> 
             <phase duration="3"  state="rryrrrrryrrr"/> 
             <phase duration="30.867255" state="rrrGGgrrrGGg"/> 
             <phase duration="3"  state="rrryygrrryyg"/> 
             <phase duration="10.289085" state="rrrrrGrrrrrG"/> 
             <phase duration="3"  state="rrrrryrrrrry"/> 
         </tlLogic> 

	 <tlLogic id="C4" type="static" programID="1" offset="27.129362"> 
             <phase duration="6.173451" state="GGgrrrGGgrrr"/> 
             <phase duration="3"  state="yygrrryygrrr"/> 
             <phase duration="2.057817" state="rrGrrrrrGrrr"/> 
             <phase duration="3"  state="rryrrrrryrrr"/> 
             <phase duration="55.561059" state="rrrGGgrrrGGg"/> 
             <phase duration="3"  state="rrryygrrryyg"/> 
             <phase duration="18.520353" state="rrrrrGrrrrrG"/> 
             <phase duration="3"  state="rrrrryrrrrry"/> 
         </tlLogic> 

	 <tlLogic id="C5" type="static" programID="1" offset="17.290916"> 
             <phase duration="30.867255" state="GGgrrrGGgrrr"/> 
             <phase duration="3"  state="yygrrryygrrr"/> 
             <phase duration="10.289085" state="rrGrrrrrGrrr"/> 
             <phase duration="3"  state="rryrrrrryrrr"/> 
             <phase duration="30.867255" state="rrrGGgrrrGGg"/> 
             <phase duration="3"  state="rrryygrrryyg"/> 
             <phase duration="10.289085" state="rrrrrGrrrrrG"/> 
             <phase duration="3"  state="rrrrryrrrrry"/> 
         </tlLogic> 

	 <tlLogic id="C6" type="static" programID="1" offset="23.760876"> 
             <phase duration="6.173451" state="GGgrrrGGgrrr"/> 
             <phase duration="3"  state="yygrrryygrrr"/> 
             <phase duration="2.057817" state="rrGrrrrrGrrr"/> 
             <phase duration="3"  state="rryrrrrryrrr"/> 
             <phase duration="55.561059" state="rrrGGgrrrGGg"/> 
             <phase duration="3"  state="rrryygrrryyg"/> 
             <phase duration="18.520353" state="rrrrrGrrrrrG"/> 
             <phase duration="3"  state="rrrrryrrrrry"/> 
         </tlLogic> 

	 <tlLogic id="C7" type="static" programID="1" offset="34.878118"> 
             <phase duration="30.867255" state="GGgrrrGGgrrr"/> 
             <phase duration="3"  state="yygrrryygrrr"/> 
             <phase duration="10.289085" state="rrGrrrrrGrrr"/> 
             <phase duration="3"  state="rryrrrrryrrr"/> 
             <phase duration="30.867255" state="rrrGGgrrrGGg"/> 
             <phase duration="3"  state="rrryygrrryyg"/> 
             <phase duration="10.289085" state="rrrrrGrrrrrG"/> 
             <phase duration="3"  state="rrrrryrrrrry"/> 
         </tlLogic> 

	 <tlLogic id="C8" type="static" programID="1" offset="42.396710"> 
             <phase duration="55.561059" state="GGgrrrGGgrrr"/> 
             <phase duration="3"  state="yygrrryygrrr"/> 
             <phase duration="18.520353" state="rrGrrrrrGrrr"/> 
             <phase duration="3"  state="rryrrrrryrrr"/> 
             <phase duration="6.173451" state="rrrGGgrrrGGg"/> 
             <phase duration="3"  state="rrryygrrryyg"/> 
             <phase duration="2.057817" state="rrrrrGrrrrrG"/> 
             <phase duration="3"  state="rrrrryrrrrry"/> 
         </tlLogic> 

	 <tlLogic id="C9" type="static" programID="1" offset="42.966513"> 
             <phase duration="30.867255" state="GGgrrrGGgrrr"/> 
             <phase duration="3"  state="yygrrryygrrr"/> 
             <phase duration="10.289085" state="rrGrrrrrGrrr"/> 
             <phase duration="3"  state="rryrrrrryrrr"/> 
             <phase duration="30.867255" state="rrrGGgrrrGGg"/> 
             <phase duration="3"  state="rrryygrrryyg"/> 
             <phase duration="10.289085" state="rrrrrGrrrrrG"/> 
             <phase duration="3"  state="rrrrryrrrrry"/> 
         </tlLogic> 

</additional>

