<routes>
        <vType id="Cartype" accel="0.8" decel="4.5" sigma="0.5" length="5" minGap="2.5" maxSpeed="16.67"         guiShape="passenger"/>
         
        <route id="carflow1" edges="1NS1 1NS1_1" />
        <route id="carflow2" edges="1SN1 1SN1_1" />
        <route id="carflow3" edges="1WO1 1WO1_1" />
        <route id="carflow4" edges="1OW1 1OW1_1" />
        <route id="carflow5" edges="2NS1 2NS1_1" />
        <route id="carflow6" edges="2SN1 2SN1_1" />
        <route id="carflow7" edges="3NS1 3NS1_1" />
        <route id="carflow8" edges="3SN1 3SN1_1" />
    <vehicle id="0" type="Cartype" route="carflow3" depart="22" />
    <vehicle id="1" type="Cartype" route="carflow4" depart="56" />
    <vehicle id="2" type="Cartype" route="carflow3" depart="64" />
    <vehicle id="3" type="Cartype" route="carflow4" depart="65" />
    <vehicle id="4" type="Cartype" route="carflow3" depart="109" />
    <vehicle id="5" type="Cartype" route="carflow3" depart="152" />
    <vehicle id="6" type="Cartype" route="carflow4" depart="174" />
    <vehicle id="7" type="Cartype" route="carflow4" depart="201" />
    <vehicle id="8" type="Cartype" route="carflow3" depart="213" />
    <vehicle id="9" type="Cartype" route="carflow3" depart="221" />
    <vehicle id="10" type="Cartype" route="carflow3" depart="233" />
    <vehicle id="11" type="Cartype" route="carflow3" depart="252" />
    <vehicle id="12" type="Cartype" route="carflow3" depart="274" />
    <vehicle id="13" type="Cartype" route="carflow3" depart="282" />
    <vehicle id="14" type="Cartype" route="carflow4" depart="292" />
    <vehicle id="15" type="Cartype" route="carflow3" depart="312" />
    <vehicle id="16" type="Cartype" route="carflow4" depart="386" />
    <vehicle id="17" type="Cartype" route="carflow4" depart="391" />
    <vehicle id="18" type="Cartype" route="carflow3" depart="405" />
    <vehicle id="19" type="Cartype" route="carflow3" depart="419" />
    <vehicle id="20" type="Cartype" route="carflow3" depart="429" />
    <vehicle id="21" type="Cartype" route="carflow3" depart="470" />
    <vehicle id="22" type="Cartype" route="carflow3" depart="478" />
    <vehicle id="23" type="Cartype" route="carflow3" depart="484" />
    <vehicle id="24" type="Cartype" route="carflow3" depart="493" />
    <vehicle id="25" type="Cartype" route="carflow4" depart="604" />
    <vehicle id="26" type="Cartype" route="carflow3" depart="640" />
    <vehicle id="27" type="Cartype" route="carflow3" depart="654" />
    <vehicle id="28" type="Cartype" route="carflow4" depart="663" />
    <vehicle id="29" type="Cartype" route="carflow3" depart="697" />
    <vehicle id="30" type="Cartype" route="carflow4" depart="698" />
    <vehicle id="31" type="Cartype" route="carflow4" depart="764" />
    <vehicle id="32" type="Cartype" route="carflow4" depart="783" />
    <vehicle id="33" type="Cartype" route="carflow3" depart="785" />
    <vehicle id="34" type="Cartype" route="carflow4" depart="795" />
    <vehicle id="35" type="Cartype" route="carflow2" depart="805" />
    <vehicle id="36" type="Cartype" route="carflow4" depart="838" />
    <vehicle id="37" type="Cartype" route="carflow4" depart="843" />
    <vehicle id="38" type="Cartype" route="carflow4" depart="859" />
    <vehicle id="39" type="Cartype" route="carflow3" depart="868" />
    <vehicle id="40" type="Cartype" route="carflow4" depart="906" />
    <vehicle id="41" type="Cartype" route="carflow4" depart="914" />
    <vehicle id="42" type="Cartype" route="carflow6" depart="917" />
    <vehicle id="43" type="Cartype" route="carflow4" depart="947" />
    <vehicle id="44" type="Cartype" route="carflow4" depart="976" />
    <vehicle id="45" type="Cartype" route="carflow4" depart="981" />
    <vehicle id="46" type="Cartype" route="carflow3" depart="987" />
    <vehicle id="47" type="Cartype" route="carflow3" depart="1001" />
    <vehicle id="48" type="Cartype" route="carflow4" depart="1038" />
    <vehicle id="49" type="Cartype" route="carflow3" depart="1062" />
    <vehicle id="50" type="Cartype" route="carflow3" depart="1070" />
    <vehicle id="51" type="Cartype" route="carflow3" depart="1089" />
    <vehicle id="52" type="Cartype" route="carflow4" depart="1092" />
    <vehicle id="53" type="Cartype" route="carflow3" depart="1093" />
    <vehicle id="54" type="Cartype" route="carflow4" depart="1131" />
    <vehicle id="55" type="Cartype" route="carflow4" depart="1146" />
    <vehicle id="56" type="Cartype" route="carflow3" depart="1150" />
    <vehicle id="57" type="Cartype" route="carflow3" depart="1151" />
    <vehicle id="58" type="Cartype" route="carflow3" depart="1164" />
    <vehicle id="59" type="Cartype" route="carflow3" depart="1178" />
    <vehicle id="60" type="Cartype" route="carflow3" depart="1194" />
    <vehicle id="61" type="Cartype" route="carflow3" depart="1230" />
    <vehicle id="62" type="Cartype" route="carflow3" depart="1273" />
    <vehicle id="63" type="Cartype" route="carflow4" depart="1278" />
    <vehicle id="64" type="Cartype" route="carflow4" depart="1301" />
    <vehicle id="65" type="Cartype" route="carflow3" depart="1305" />
    <vehicle id="66" type="Cartype" route="carflow3" depart="1313" />
    <vehicle id="67" type="Cartype" route="carflow4" depart="1317" />
    <vehicle id="68" type="Cartype" route="carflow3" depart="1335" />
    <vehicle id="69" type="Cartype" route="carflow4" depart="1352" />
    <vehicle id="70" type="Cartype" route="carflow3" depart="1358" />
    <vehicle id="71" type="Cartype" route="carflow4" depart="1363" />
    <vehicle id="72" type="Cartype" route="carflow3" depart="1369" />
    <vehicle id="73" type="Cartype" route="carflow3" depart="1394" />
    <vehicle id="74" type="Cartype" route="carflow4" depart="1433" />
    <vehicle id="75" type="Cartype" route="carflow4" depart="1477" />
    <vehicle id="76" type="Cartype" route="carflow4" depart="1478" />
    <vehicle id="77" type="Cartype" route="carflow3" depart="1489" />
    <vehicle id="78" type="Cartype" route="carflow4" depart="1538" />
    <vehicle id="79" type="Cartype" route="carflow3" depart="1625" />
    <vehicle id="80" type="Cartype" route="carflow3" depart="1625" />
    <vehicle id="81" type="Cartype" route="carflow4" depart="1679" />
    <vehicle id="82" type="Cartype" route="carflow3" depart="1685" />
    <vehicle id="83" type="Cartype" route="carflow4" depart="1691" />
    <vehicle id="84" type="Cartype" route="carflow3" depart="1699" />
    <vehicle id="85" type="Cartype" route="carflow7" depart="1730" />
    <vehicle id="86" type="Cartype" route="carflow4" depart="1745" />
    <vehicle id="87" type="Cartype" route="carflow4" depart="1746" />
    <vehicle id="88" type="Cartype" route="carflow4" depart="1796" />
    <vehicle id="89" type="Cartype" route="carflow4" depart="1819" />
    <vehicle id="90" type="Cartype" route="carflow3" depart="1838" />
    <vehicle id="91" type="Cartype" route="carflow4" depart="1840" />
    <vehicle id="92" type="Cartype" route="carflow3" depart="1851" />
    <vehicle id="93" type="Cartype" route="carflow3" depart="1864" />
    <vehicle id="94" type="Cartype" route="carflow3" depart="1924" />
    <vehicle id="95" type="Cartype" route="carflow3" depart="1971" />
    <vehicle id="96" type="Cartype" route="carflow4" depart="1996" />
    <vehicle id="97" type="Cartype" route="carflow3" depart="2017" />
    <vehicle id="98" type="Cartype" route="carflow3" depart="2037" />
    <vehicle id="99" type="Cartype" route="carflow3" depart="2039" />
    <vehicle id="100" type="Cartype" route="carflow4" depart="2053" />
    <vehicle id="101" type="Cartype" route="carflow4" depart="2059" />
    <vehicle id="102" type="Cartype" route="carflow4" depart="2070" />
    <vehicle id="103" type="Cartype" route="carflow4" depart="2139" />
    <vehicle id="104" type="Cartype" route="carflow3" depart="2140" />
    <vehicle id="105" type="Cartype" route="carflow3" depart="2144" />
    <vehicle id="106" type="Cartype" route="carflow3" depart="2149" />
    <vehicle id="107" type="Cartype" route="carflow1" depart="2181" />
    <vehicle id="108" type="Cartype" route="carflow4" depart="2207" />
    <vehicle id="109" type="Cartype" route="carflow3" depart="2266" />
    <vehicle id="110" type="Cartype" route="carflow3" depart="2299" />
    <vehicle id="111" type="Cartype" route="carflow3" depart="2306" />
    <vehicle id="112" type="Cartype" route="carflow3" depart="2350" />
    <vehicle id="113" type="Cartype" route="carflow3" depart="2381" />
    <vehicle id="114" type="Cartype" route="carflow4" depart="2386" />
    <vehicle id="115" type="Cartype" route="carflow1" depart="2400" />
    <vehicle id="116" type="Cartype" route="carflow4" depart="2400" />
    <vehicle id="117" type="Cartype" route="carflow4" depart="2414" />
    <vehicle id="118" type="Cartype" route="carflow4" depart="2421" />
    <vehicle id="119" type="Cartype" route="carflow4" depart="2427" />
    <vehicle id="120" type="Cartype" route="carflow2" depart="2429" />
    <vehicle id="121" type="Cartype" route="carflow3" depart="2429" />
    <vehicle id="122" type="Cartype" route="carflow4" depart="2443" />
    <vehicle id="123" type="Cartype" route="carflow4" depart="2465" />
    <vehicle id="124" type="Cartype" route="carflow3" depart="2467" />
    <vehicle id="125" type="Cartype" route="carflow3" depart="2470" />
    <vehicle id="126" type="Cartype" route="carflow4" depart="2520" />
    <vehicle id="127" type="Cartype" route="carflow3" depart="2521" />
    <vehicle id="128" type="Cartype" route="carflow3" depart="2541" />
    <vehicle id="129" type="Cartype" route="carflow3" depart="2548" />
    <vehicle id="130" type="Cartype" route="carflow3" depart="2574" />
    <vehicle id="131" type="Cartype" route="carflow3" depart="2580" />
    <vehicle id="132" type="Cartype" route="carflow3" depart="2596" />
    <vehicle id="133" type="Cartype" route="carflow3" depart="2624" />
    <vehicle id="134" type="Cartype" route="carflow4" depart="2627" />
    <vehicle id="135" type="Cartype" route="carflow4" depart="2647" />
    <vehicle id="136" type="Cartype" route="carflow3" depart="2724" />
    <vehicle id="137" type="Cartype" route="carflow4" depart="2735" />
    <vehicle id="138" type="Cartype" route="carflow4" depart="2772" />
    <vehicle id="139" type="Cartype" route="carflow4" depart="2789" />
    <vehicle id="140" type="Cartype" route="carflow4" depart="2801" />
    <vehicle id="141" type="Cartype" route="carflow4" depart="2818" />
    <vehicle id="142" type="Cartype" route="carflow4" depart="2832" />
    <vehicle id="143" type="Cartype" route="carflow4" depart="2837" />
    <vehicle id="144" type="Cartype" route="carflow3" depart="2850" />
    <vehicle id="145" type="Cartype" route="carflow3" depart="2852" />
    <vehicle id="146" type="Cartype" route="carflow4" depart="2852" />
    <vehicle id="147" type="Cartype" route="carflow4" depart="2857" />
    <vehicle id="148" type="Cartype" route="carflow3" depart="2875" />
    <vehicle id="149" type="Cartype" route="carflow3" depart="2891" />
    <vehicle id="150" type="Cartype" route="carflow4" depart="2900" />
    <vehicle id="151" type="Cartype" route="carflow3" depart="2933" />
    <vehicle id="152" type="Cartype" route="carflow1" depart="2969" />
    <vehicle id="153" type="Cartype" route="carflow3" depart="2970" />
    <vehicle id="154" type="Cartype" route="carflow4" depart="2973" />
    <vehicle id="155" type="Cartype" route="carflow4" depart="2979" />
    <vehicle id="156" type="Cartype" route="carflow4" depart="2985" />
    <vehicle id="157" type="Cartype" route="carflow4" depart="3009" />
    <vehicle id="158" type="Cartype" route="carflow3" depart="3022" />
    <vehicle id="159" type="Cartype" route="carflow4" depart="3026" />
    <vehicle id="160" type="Cartype" route="carflow3" depart="3035" />
    <vehicle id="161" type="Cartype" route="carflow4" depart="3041" />
    <vehicle id="162" type="Cartype" route="carflow4" depart="3067" />
    <vehicle id="163" type="Cartype" route="carflow3" depart="3085" />
    <vehicle id="164" type="Cartype" route="carflow4" depart="3091" />
    <vehicle id="165" type="Cartype" route="carflow6" depart="3128" />
    <vehicle id="166" type="Cartype" route="carflow3" depart="3143" />
    <vehicle id="167" type="Cartype" route="carflow3" depart="3167" />
    <vehicle id="168" type="Cartype" route="carflow4" depart="3186" />
    <vehicle id="169" type="Cartype" route="carflow3" depart="3235" />
    <vehicle id="170" type="Cartype" route="carflow7" depart="3262" />
    <vehicle id="171" type="Cartype" route="carflow3" depart="3267" />
    <vehicle id="172" type="Cartype" route="carflow4" depart="3296" />
    <vehicle id="173" type="Cartype" route="carflow4" depart="3308" />
    <vehicle id="174" type="Cartype" route="carflow4" depart="3319" />
    <vehicle id="175" type="Cartype" route="carflow3" depart="3335" />
    <vehicle id="176" type="Cartype" route="carflow3" depart="3345" />
    <vehicle id="177" type="Cartype" route="carflow4" depart="3351" />
    <vehicle id="178" type="Cartype" route="carflow3" depart="3368" />
    <vehicle id="179" type="Cartype" route="carflow4" depart="3377" />
    <vehicle id="180" type="Cartype" route="carflow3" depart="3393" />
    <vehicle id="181" type="Cartype" route="carflow3" depart="3423" />
    <vehicle id="182" type="Cartype" route="carflow4" depart="3452" />
    <vehicle id="183" type="Cartype" route="carflow3" depart="3508" />
    <vehicle id="184" type="Cartype" route="carflow4" depart="3518" />
    <vehicle id="185" type="Cartype" route="carflow4" depart="3525" />
    <vehicle id="186" type="Cartype" route="carflow3" depart="3540" />
    <vehicle id="187" type="Cartype" route="carflow4" depart="3547" />
    <vehicle id="188" type="Cartype" route="carflow4" depart="3563" />
    <vehicle id="189" type="Cartype" route="carflow2" depart="3574" />
</routes>
