<routes>
        <vType id="typeWE" accel="0.8" decel="4.5" sigma="0.5" length="5" minGap="2.5" maxSpeed="16.67"         guiShape="passenger"/>
        <vType id="typeNS" accel="0.8" decel="4.5" sigma="0.5" length="7" minGap="3" maxSpeed="25" guiShape="passenger"/>
        
        <route id="carflow1" edges="1NS1 1NS1_1" />
        <route id="carflow2" edges="1SN1 1SN1_1" />
        <route id="carflow3" edges="1WO1 1WO1_1" />
        <route id="carflow4" edges="1OW1 1OW1_1" />
        <route id="carflow5" edges="2NS1 2NS1_1" />
        <route id="carflow6" edges="2SN1 2SN1_1" />
        <route id="carflow7" edges="3NS1 3NS1_1" />
        <route id="carflow8" edges="3SN1 3SN1_1" />
    <vehicle id="0" type="typeNS" route="carflow3" depart="0" />
    <vehicle id="1" type="typeWE" route="carflow1" depart="2" />
    <vehicle id="2" type="typeNS" route="carflow5" depart="4" />
    <vehicle id="3" type="typeNS" route="carflow6" depart="5" />
    <vehicle id="4" type="typeNS" route="carflow8" depart="5" />
    <vehicle id="5" type="typeNS" route="carflow8" depart="6" />
    <vehicle id="6" type="typeNS" route="carflow8" depart="7" />
    <vehicle id="7" type="typeNS" route="carflow3" depart="9" />
    <vehicle id="8" type="typeNS" route="carflow8" depart="12" />
    <vehicle id="9" type="typeNS" route="carflow6" depart="15" />
    <vehicle id="10" type="typeWE" route="carflow1" depart="16" />
    <vehicle id="11" type="typeWE" route="carflow1" depart="16" />
    <vehicle id="12" type="typeNS" route="carflow5" depart="18" />
    <vehicle id="13" type="typeWE" route="carflow2" depart="20" />
    <vehicle id="14" type="typeNS" route="carflow5" depart="20" />
    <vehicle id="15" type="typeWE" route="carflow1" depart="23" />
    <vehicle id="16" type="typeWE" route="carflow2" depart="24" />
    <vehicle id="17" type="typeNS" route="carflow6" depart="26" />
    <vehicle id="18" type="typeNS" route="carflow5" depart="28" />
    <vehicle id="19" type="typeNS" route="carflow7" depart="28" />
    <vehicle id="20" type="typeNS" route="carflow8" depart="30" />
    <vehicle id="21" type="typeWE" route="carflow1" depart="31" />
    <vehicle id="22" type="typeNS" route="carflow5" depart="32" />
    <vehicle id="23" type="typeNS" route="carflow3" depart="33" />
    <vehicle id="24" type="typeNS" route="carflow7" depart="34" />
    <vehicle id="25" type="typeNS" route="carflow5" depart="36" />
    <vehicle id="26" type="typeNS" route="carflow8" depart="42" />
    <vehicle id="27" type="typeWE" route="carflow1" depart="43" />
    <vehicle id="28" type="typeNS" route="carflow6" depart="43" />
    <vehicle id="29" type="typeNS" route="carflow5" depart="44" />
    <vehicle id="30" type="typeNS" route="carflow4" depart="45" />
    <vehicle id="31" type="typeNS" route="carflow7" depart="45" />
    <vehicle id="32" type="typeNS" route="carflow6" depart="46" />
    <vehicle id="33" type="typeNS" route="carflow8" depart="46" />
    <vehicle id="34" type="typeWE" route="carflow1" depart="47" />
    <vehicle id="35" type="typeWE" route="carflow1" depart="51" />
    <vehicle id="36" type="typeNS" route="carflow7" depart="51" />
    <vehicle id="37" type="typeNS" route="carflow8" depart="51" />
    <vehicle id="38" type="typeNS" route="carflow3" depart="53" />
    <vehicle id="39" type="typeNS" route="carflow3" depart="56" />
    <vehicle id="40" type="typeNS" route="carflow4" depart="56" />
    <vehicle id="41" type="typeNS" route="carflow3" depart="61" />
    <vehicle id="42" type="typeWE" route="carflow2" depart="64" />
    <vehicle id="43" type="typeNS" route="carflow8" depart="64" />
    <vehicle id="44" type="typeNS" route="carflow6" depart="66" />
    <vehicle id="45" type="typeNS" route="carflow4" depart="68" />
    <vehicle id="46" type="typeNS" route="carflow3" depart="69" />
    <vehicle id="47" type="typeNS" route="carflow7" depart="69" />
    <vehicle id="48" type="typeNS" route="carflow8" depart="72" />
    <vehicle id="49" type="typeNS" route="carflow3" depart="73" />
    <vehicle id="50" type="typeNS" route="carflow4" depart="74" />
    <vehicle id="51" type="typeWE" route="carflow2" depart="77" />
    <vehicle id="52" type="typeNS" route="carflow8" depart="79" />
    <vehicle id="53" type="typeNS" route="carflow3" depart="80" />
    <vehicle id="54" type="typeNS" route="carflow4" depart="81" />
    <vehicle id="55" type="typeNS" route="carflow6" depart="81" />
    <vehicle id="56" type="typeNS" route="carflow5" depart="82" />
    <vehicle id="57" type="typeNS" route="carflow3" depart="83" />
    <vehicle id="58" type="typeNS" route="carflow4" depart="84" />
    <vehicle id="59" type="typeNS" route="carflow5" depart="84" />
    <vehicle id="60" type="typeWE" route="carflow2" depart="86" />
    <vehicle id="61" type="typeNS" route="carflow5" depart="86" />
    <vehicle id="62" type="typeNS" route="carflow5" depart="87" />
    <vehicle id="63" type="typeWE" route="carflow2" depart="88" />
    <vehicle id="64" type="typeNS" route="carflow6" depart="90" />
    <vehicle id="65" type="typeNS" route="carflow6" depart="93" />
    <vehicle id="66" type="typeNS" route="carflow4" depart="97" />
    <vehicle id="67" type="typeWE" route="carflow1" depart="98" />
    <vehicle id="68" type="typeNS" route="carflow7" depart="100" />
    <vehicle id="69" type="typeNS" route="carflow4" depart="101" />
    <vehicle id="70" type="typeNS" route="carflow4" depart="101" />
    <vehicle id="71" type="typeNS" route="carflow5" depart="103" />
    <vehicle id="72" type="typeWE" route="carflow2" depart="104" />
    <vehicle id="73" type="typeNS" route="carflow5" depart="104" />
    <vehicle id="74" type="typeNS" route="carflow6" depart="106" />
    <vehicle id="75" type="typeNS" route="carflow6" depart="107" />
    <vehicle id="76" type="typeWE" route="carflow1" depart="109" />
    <vehicle id="77" type="typeWE" route="carflow2" depart="112" />
    <vehicle id="78" type="typeNS" route="carflow5" depart="112" />
    <vehicle id="79" type="typeNS" route="carflow3" depart="114" />
    <vehicle id="80" type="typeNS" route="carflow8" depart="119" />
    <vehicle id="81" type="typeNS" route="carflow8" depart="121" />
    <vehicle id="82" type="typeWE" route="carflow1" depart="123" />
    <vehicle id="83" type="typeNS" route="carflow3" depart="124" />
    <vehicle id="84" type="typeNS" route="carflow8" depart="124" />
    <vehicle id="85" type="typeNS" route="carflow5" depart="127" />
    <vehicle id="86" type="typeWE" route="carflow1" depart="128" />
    <vehicle id="87" type="typeNS" route="carflow5" depart="128" />
    <vehicle id="88" type="typeNS" route="carflow4" depart="132" />
    <vehicle id="89" type="typeNS" route="carflow8" depart="138" />
    <vehicle id="90" type="typeWE" route="carflow1" depart="139" />
    <vehicle id="91" type="typeNS" route="carflow6" depart="144" />
    <vehicle id="92" type="typeNS" route="carflow6" depart="145" />
    <vehicle id="93" type="typeNS" route="carflow8" depart="145" />
    <vehicle id="94" type="typeNS" route="carflow7" depart="148" />
    <vehicle id="95" type="typeNS" route="carflow8" depart="149" />
    <vehicle id="96" type="typeWE" route="carflow1" depart="151" />
    <vehicle id="97" type="typeWE" route="carflow2" depart="154" />
    <vehicle id="98" type="typeNS" route="carflow3" depart="155" />
    <vehicle id="99" type="typeNS" route="carflow6" depart="155" />
    <vehicle id="100" type="typeNS" route="carflow7" depart="156" />
    <vehicle id="101" type="typeNS" route="carflow5" depart="161" />
    <vehicle id="102" type="typeNS" route="carflow6" depart="162" />
    <vehicle id="103" type="typeNS" route="carflow4" depart="163" />
    <vehicle id="104" type="typeNS" route="carflow8" depart="163" />
    <vehicle id="105" type="typeNS" route="carflow3" depart="164" />
    <vehicle id="106" type="typeWE" route="carflow1" depart="166" />
    <vehicle id="107" type="typeNS" route="carflow6" depart="168" />
    <vehicle id="108" type="typeNS" route="carflow8" depart="168" />
    <vehicle id="109" type="typeNS" route="carflow8" depart="169" />
    <vehicle id="110" type="typeWE" route="carflow1" depart="170" />
    <vehicle id="111" type="typeNS" route="carflow4" depart="170" />
    <vehicle id="112" type="typeNS" route="carflow8" depart="174" />
    <vehicle id="113" type="typeNS" route="carflow7" depart="176" />
    <vehicle id="114" type="typeWE" route="carflow2" depart="177" />
    <vehicle id="115" type="typeNS" route="carflow4" depart="178" />
    <vehicle id="116" type="typeNS" route="carflow3" depart="180" />
    <vehicle id="117" type="typeNS" route="carflow8" depart="180" />
    <vehicle id="118" type="typeNS" route="carflow8" depart="181" />
    <vehicle id="119" type="typeNS" route="carflow5" depart="182" />
    <vehicle id="120" type="typeNS" route="carflow7" depart="183" />
    <vehicle id="121" type="typeNS" route="carflow6" depart="184" />
    <vehicle id="122" type="typeNS" route="carflow7" depart="184" />
    <vehicle id="123" type="typeNS" route="carflow3" depart="189" />
    <vehicle id="124" type="typeWE" route="carflow2" depart="192" />
    <vehicle id="125" type="typeWE" route="carflow2" depart="193" />
    <vehicle id="126" type="typeNS" route="carflow3" depart="193" />
    <vehicle id="127" type="typeNS" route="carflow7" depart="194" />
    <vehicle id="128" type="typeNS" route="carflow6" depart="196" />
    <vehicle id="129" type="typeNS" route="carflow3" depart="198" />
    <vehicle id="130" type="typeNS" route="carflow6" depart="198" />
    <vehicle id="131" type="typeNS" route="carflow4" depart="201" />
    <vehicle id="132" type="typeWE" route="carflow2" depart="203" />
    <vehicle id="133" type="typeNS" route="carflow7" depart="204" />
    <vehicle id="134" type="typeNS" route="carflow7" depart="207" />
    <vehicle id="135" type="typeNS" route="carflow3" depart="212" />
    <vehicle id="136" type="typeNS" route="carflow5" depart="213" />
    <vehicle id="137" type="typeNS" route="carflow6" depart="215" />
    <vehicle id="138" type="typeNS" route="carflow3" depart="216" />
    <vehicle id="139" type="typeWE" route="carflow2" depart="218" />
    <vehicle id="140" type="typeNS" route="carflow3" depart="221" />
    <vehicle id="141" type="typeWE" route="carflow2" depart="222" />
    <vehicle id="142" type="typeNS" route="carflow8" depart="224" />
    <vehicle id="143" type="typeWE" route="carflow1" depart="226" />
    <vehicle id="144" type="typeNS" route="carflow4" depart="227" />
    <vehicle id="145" type="typeNS" route="carflow6" depart="229" />
    <vehicle id="146" type="typeNS" route="carflow4" depart="232" />
    <vehicle id="147" type="typeWE" route="carflow1" depart="235" />
    <vehicle id="148" type="typeNS" route="carflow3" depart="235" />
    <vehicle id="149" type="typeWE" route="carflow1" depart="238" />
    <vehicle id="150" type="typeNS" route="carflow8" depart="241" />
    <vehicle id="151" type="typeNS" route="carflow5" depart="242" />
    <vehicle id="152" type="typeWE" route="carflow1" depart="243" />
    <vehicle id="153" type="typeNS" route="carflow3" depart="244" />
    <vehicle id="154" type="typeNS" route="carflow4" depart="245" />
    <vehicle id="155" type="typeNS" route="carflow6" depart="246" />
    <vehicle id="156" type="typeNS" route="carflow7" depart="246" />
    <vehicle id="157" type="typeNS" route="carflow3" depart="257" />
    <vehicle id="158" type="typeNS" route="carflow3" depart="262" />
    <vehicle id="159" type="typeNS" route="carflow8" depart="263" />
    <vehicle id="160" type="typeWE" route="carflow1" depart="264" />
    <vehicle id="161" type="typeNS" route="carflow4" depart="266" />
    <vehicle id="162" type="typeNS" route="carflow7" depart="268" />
    <vehicle id="163" type="typeNS" route="carflow5" depart="269" />
    <vehicle id="164" type="typeWE" route="carflow2" depart="270" />
    <vehicle id="165" type="typeNS" route="carflow6" depart="271" />
    <vehicle id="166" type="typeNS" route="carflow6" depart="273" />
    <vehicle id="167" type="typeNS" route="carflow6" depart="276" />
    <vehicle id="168" type="typeNS" route="carflow4" depart="277" />
    <vehicle id="169" type="typeNS" route="carflow8" depart="278" />
    <vehicle id="170" type="typeNS" route="carflow7" depart="282" />
    <vehicle id="171" type="typeNS" route="carflow3" depart="286" />
    <vehicle id="172" type="typeNS" route="carflow7" depart="286" />
    <vehicle id="173" type="typeNS" route="carflow3" depart="287" />
    <vehicle id="174" type="typeWE" route="carflow1" depart="288" />
    <vehicle id="175" type="typeNS" route="carflow3" depart="289" />
    <vehicle id="176" type="typeWE" route="carflow2" depart="292" />
    <vehicle id="177" type="typeNS" route="carflow3" depart="295" />
    <vehicle id="178" type="typeNS" route="carflow8" depart="295" />
    <vehicle id="179" type="typeNS" route="carflow4" depart="298" />
    <vehicle id="180" type="typeNS" route="carflow7" depart="298" />
    <vehicle id="181" type="typeWE" route="carflow2" depart="301" />
    <vehicle id="182" type="typeNS" route="carflow8" depart="304" />
    <vehicle id="183" type="typeNS" route="carflow4" depart="306" />
    <vehicle id="184" type="typeNS" route="carflow5" depart="308" />
    <vehicle id="185" type="typeWE" route="carflow2" depart="311" />
    <vehicle id="186" type="typeWE" route="carflow2" depart="312" />
    <vehicle id="187" type="typeNS" route="carflow5" depart="317" />
    <vehicle id="188" type="typeNS" route="carflow3" depart="318" />
    <vehicle id="189" type="typeNS" route="carflow5" depart="318" />
    <vehicle id="190" type="typeNS" route="carflow8" depart="318" />
    <vehicle id="191" type="typeNS" route="carflow5" depart="321" />
    <vehicle id="192" type="typeWE" route="carflow2" depart="323" />
    <vehicle id="193" type="typeWE" route="carflow2" depart="324" />
    <vehicle id="194" type="typeNS" route="carflow5" depart="325" />
    <vehicle id="195" type="typeNS" route="carflow6" depart="325" />
    <vehicle id="196" type="typeNS" route="carflow6" depart="326" />
    <vehicle id="197" type="typeNS" route="carflow4" depart="329" />
    <vehicle id="198" type="typeNS" route="carflow8" depart="332" />
    <vehicle id="199" type="typeWE" route="carflow1" depart="335" />
    <vehicle id="200" type="typeNS" route="carflow7" depart="336" />
    <vehicle id="201" type="typeWE" route="carflow1" depart="337" />
    <vehicle id="202" type="typeNS" route="carflow7" depart="339" />
    <vehicle id="203" type="typeWE" route="carflow1" depart="343" />
    <vehicle id="204" type="typeNS" route="carflow7" depart="343" />
    <vehicle id="205" type="typeNS" route="carflow8" depart="343" />
    <vehicle id="206" type="typeWE" route="carflow2" depart="344" />
    <vehicle id="207" type="typeNS" route="carflow8" depart="345" />
    <vehicle id="208" type="typeWE" route="carflow2" depart="349" />
    <vehicle id="209" type="typeNS" route="carflow4" depart="349" />
    <vehicle id="210" type="typeNS" route="carflow5" depart="350" />
    <vehicle id="211" type="typeWE" route="carflow2" depart="353" />
    <vehicle id="212" type="typeNS" route="carflow3" depart="353" />
    <vehicle id="213" type="typeNS" route="carflow6" depart="353" />
    <vehicle id="214" type="typeNS" route="carflow4" depart="355" />
    <vehicle id="215" type="typeWE" route="carflow1" depart="356" />
    <vehicle id="216" type="typeWE" route="carflow2" depart="356" />
    <vehicle id="217" type="typeWE" route="carflow1" depart="359" />
    <vehicle id="218" type="typeNS" route="carflow3" depart="359" />
    <vehicle id="219" type="typeNS" route="carflow4" depart="359" />
    <vehicle id="220" type="typeNS" route="carflow8" depart="360" />
    <vehicle id="221" type="typeNS" route="carflow6" depart="361" />
    <vehicle id="222" type="typeNS" route="carflow8" depart="361" />
    <vehicle id="223" type="typeNS" route="carflow5" depart="364" />
    <vehicle id="224" type="typeNS" route="carflow6" depart="364" />
    <vehicle id="225" type="typeNS" route="carflow5" depart="365" />
    <vehicle id="226" type="typeNS" route="carflow5" depart="366" />
    <vehicle id="227" type="typeNS" route="carflow7" depart="366" />
    <vehicle id="228" type="typeNS" route="carflow3" depart="367" />
    <vehicle id="229" type="typeNS" route="carflow7" depart="368" />
    <vehicle id="230" type="typeWE" route="carflow1" depart="369" />
    <vehicle id="231" type="typeNS" route="carflow8" depart="369" />
    <vehicle id="232" type="typeNS" route="carflow4" depart="371" />
    <vehicle id="233" type="typeNS" route="carflow3" depart="372" />
    <vehicle id="234" type="typeWE" route="carflow2" depart="373" />
    <vehicle id="235" type="typeNS" route="carflow5" depart="374" />
    <vehicle id="236" type="typeWE" route="carflow2" depart="377" />
    <vehicle id="237" type="typeNS" route="carflow5" depart="377" />
    <vehicle id="238" type="typeNS" route="carflow5" depart="378" />
    <vehicle id="239" type="typeWE" route="carflow1" depart="380" />
    <vehicle id="240" type="typeWE" route="carflow2" depart="381" />
    <vehicle id="241" type="typeNS" route="carflow3" depart="384" />
    <vehicle id="242" type="typeWE" route="carflow2" depart="385" />
    <vehicle id="243" type="typeNS" route="carflow5" depart="386" />
    <vehicle id="244" type="typeNS" route="carflow4" depart="387" />
    <vehicle id="245" type="typeNS" route="carflow8" depart="387" />
    <vehicle id="246" type="typeWE" route="carflow2" depart="390" />
    <vehicle id="247" type="typeNS" route="carflow3" depart="390" />
    <vehicle id="248" type="typeNS" route="carflow8" depart="392" />
    <vehicle id="249" type="typeWE" route="carflow1" depart="393" />
    <vehicle id="250" type="typeNS" route="carflow6" depart="393" />
    <vehicle id="251" type="typeNS" route="carflow8" depart="395" />
    <vehicle id="252" type="typeNS" route="carflow7" depart="397" />
    <vehicle id="253" type="typeNS" route="carflow6" depart="399" />
    <vehicle id="254" type="typeNS" route="carflow3" depart="400" />
    <vehicle id="255" type="typeNS" route="carflow5" depart="402" />
    <vehicle id="256" type="typeNS" route="carflow6" depart="402" />
    <vehicle id="257" type="typeNS" route="carflow8" depart="403" />
    <vehicle id="258" type="typeNS" route="carflow7" depart="406" />
    <vehicle id="259" type="typeNS" route="carflow7" depart="409" />
    <vehicle id="260" type="typeNS" route="carflow7" depart="414" />
    <vehicle id="261" type="typeWE" route="carflow2" depart="417" />
    <vehicle id="262" type="typeNS" route="carflow3" depart="417" />
    <vehicle id="263" type="typeNS" route="carflow6" depart="417" />
    <vehicle id="264" type="typeNS" route="carflow5" depart="419" />
    <vehicle id="265" type="typeNS" route="carflow8" depart="421" />
    <vehicle id="266" type="typeNS" route="carflow3" depart="423" />
    <vehicle id="267" type="typeNS" route="carflow7" depart="423" />
    <vehicle id="268" type="typeNS" route="carflow5" depart="427" />
    <vehicle id="269" type="typeNS" route="carflow4" depart="430" />
    <vehicle id="270" type="typeNS" route="carflow7" depart="436" />
    <vehicle id="271" type="typeNS" route="carflow3" depart="438" />
    <vehicle id="272" type="typeNS" route="carflow4" depart="440" />
    <vehicle id="273" type="typeNS" route="carflow6" depart="440" />
    <vehicle id="274" type="typeNS" route="carflow7" depart="440" />
    <vehicle id="275" type="typeNS" route="carflow4" depart="452" />
    <vehicle id="276" type="typeWE" route="carflow1" depart="453" />
    <vehicle id="277" type="typeNS" route="carflow3" depart="454" />
    <vehicle id="278" type="typeNS" route="carflow3" depart="463" />
    <vehicle id="279" type="typeNS" route="carflow4" depart="464" />
    <vehicle id="280" type="typeNS" route="carflow5" depart="464" />
    <vehicle id="281" type="typeNS" route="carflow6" depart="465" />
    <vehicle id="282" type="typeNS" route="carflow3" depart="466" />
    <vehicle id="283" type="typeNS" route="carflow4" depart="466" />
    <vehicle id="284" type="typeNS" route="carflow4" depart="467" />
    <vehicle id="285" type="typeWE" route="carflow1" depart="470" />
    <vehicle id="286" type="typeWE" route="carflow2" depart="470" />
    <vehicle id="287" type="typeNS" route="carflow3" depart="470" />
    <vehicle id="288" type="typeWE" route="carflow2" depart="471" />
    <vehicle id="289" type="typeNS" route="carflow7" depart="473" />
    <vehicle id="290" type="typeWE" route="carflow2" depart="474" />
    <vehicle id="291" type="typeNS" route="carflow8" depart="475" />
    <vehicle id="292" type="typeNS" route="carflow4" depart="477" />
    <vehicle id="293" type="typeNS" route="carflow5" depart="477" />
    <vehicle id="294" type="typeNS" route="carflow7" depart="477" />
    <vehicle id="295" type="typeNS" route="carflow8" depart="477" />
    <vehicle id="296" type="typeWE" route="carflow1" depart="478" />
    <vehicle id="297" type="typeNS" route="carflow8" depart="478" />
    <vehicle id="298" type="typeNS" route="carflow4" depart="479" />
    <vehicle id="299" type="typeNS" route="carflow7" depart="480" />
    <vehicle id="300" type="typeWE" route="carflow1" depart="482" />
    <vehicle id="301" type="typeNS" route="carflow7" depart="482" />
    <vehicle id="302" type="typeWE" route="carflow1" depart="485" />
    <vehicle id="303" type="typeNS" route="carflow6" depart="489" />
    <vehicle id="304" type="typeNS" route="carflow4" depart="495" />
    <vehicle id="305" type="typeNS" route="carflow8" depart="496" />
    <vehicle id="306" type="typeNS" route="carflow3" depart="497" />
    <vehicle id="307" type="typeNS" route="carflow7" depart="498" />
    <vehicle id="308" type="typeNS" route="carflow8" depart="498" />
    <vehicle id="309" type="typeNS" route="carflow7" depart="499" />
    <vehicle id="310" type="typeNS" route="carflow8" depart="499" />
    <vehicle id="311" type="typeWE" route="carflow1" depart="501" />
    <vehicle id="312" type="typeNS" route="carflow7" depart="502" />
    <vehicle id="313" type="typeNS" route="carflow3" depart="506" />
    <vehicle id="314" type="typeNS" route="carflow5" depart="506" />
    <vehicle id="315" type="typeNS" route="carflow3" depart="509" />
    <vehicle id="316" type="typeNS" route="carflow5" depart="513" />
    <vehicle id="317" type="typeNS" route="carflow3" depart="515" />
    <vehicle id="318" type="typeNS" route="carflow7" depart="515" />
    <vehicle id="319" type="typeNS" route="carflow3" depart="516" />
    <vehicle id="320" type="typeNS" route="carflow4" depart="517" />
    <vehicle id="321" type="typeNS" route="carflow8" depart="520" />
    <vehicle id="322" type="typeNS" route="carflow7" depart="523" />
    <vehicle id="323" type="typeWE" route="carflow1" depart="525" />
    <vehicle id="324" type="typeNS" route="carflow3" depart="525" />
    <vehicle id="325" type="typeWE" route="carflow2" depart="526" />
    <vehicle id="326" type="typeNS" route="carflow8" depart="528" />
    <vehicle id="327" type="typeWE" route="carflow2" depart="534" />
    <vehicle id="328" type="typeWE" route="carflow2" depart="535" />
    <vehicle id="329" type="typeNS" route="carflow5" depart="535" />
    <vehicle id="330" type="typeNS" route="carflow6" depart="537" />
    <vehicle id="331" type="typeNS" route="carflow7" depart="541" />
    <vehicle id="332" type="typeNS" route="carflow8" depart="541" />
    <vehicle id="333" type="typeWE" route="carflow1" depart="542" />
    <vehicle id="334" type="typeWE" route="carflow2" depart="543" />
    <vehicle id="335" type="typeWE" route="carflow1" depart="544" />
    <vehicle id="336" type="typeNS" route="carflow4" depart="544" />
    <vehicle id="337" type="typeNS" route="carflow6" depart="544" />
    <vehicle id="338" type="typeNS" route="carflow7" depart="544" />
    <vehicle id="339" type="typeNS" route="carflow8" depart="544" />
    <vehicle id="340" type="typeNS" route="carflow8" depart="546" />
    <vehicle id="341" type="typeNS" route="carflow7" depart="547" />
    <vehicle id="342" type="typeWE" route="carflow1" depart="554" />
    <vehicle id="343" type="typeNS" route="carflow4" depart="554" />
    <vehicle id="344" type="typeWE" route="carflow2" depart="555" />
    <vehicle id="345" type="typeNS" route="carflow4" depart="556" />
    <vehicle id="346" type="typeNS" route="carflow7" depart="556" />
    <vehicle id="347" type="typeNS" route="carflow3" depart="557" />
    <vehicle id="348" type="typeWE" route="carflow2" depart="560" />
    <vehicle id="349" type="typeNS" route="carflow5" depart="562" />
    <vehicle id="350" type="typeNS" route="carflow8" depart="562" />
    <vehicle id="351" type="typeNS" route="carflow5" depart="564" />
    <vehicle id="352" type="typeNS" route="carflow6" depart="566" />
    <vehicle id="353" type="typeNS" route="carflow5" depart="570" />
    <vehicle id="354" type="typeNS" route="carflow3" depart="572" />
    <vehicle id="355" type="typeNS" route="carflow5" depart="573" />
    <vehicle id="356" type="typeNS" route="carflow6" depart="574" />
    <vehicle id="357" type="typeNS" route="carflow4" depart="577" />
    <vehicle id="358" type="typeWE" route="carflow2" depart="578" />
    <vehicle id="359" type="typeNS" route="carflow6" depart="580" />
    <vehicle id="360" type="typeNS" route="carflow4" depart="583" />
    <vehicle id="361" type="typeNS" route="carflow3" depart="587" />
    <vehicle id="362" type="typeNS" route="carflow5" depart="589" />
    <vehicle id="363" type="typeNS" route="carflow4" depart="590" />
    <vehicle id="364" type="typeWE" route="carflow1" depart="591" />
    <vehicle id="365" type="typeWE" route="carflow2" depart="591" />
    <vehicle id="366" type="typeNS" route="carflow4" depart="591" />
    <vehicle id="367" type="typeNS" route="carflow4" depart="592" />
    <vehicle id="368" type="typeNS" route="carflow6" depart="592" />
    <vehicle id="369" type="typeNS" route="carflow6" depart="597" />
    <vehicle id="370" type="typeNS" route="carflow8" depart="598" />
    <vehicle id="371" type="typeNS" route="carflow5" depart="600" />
    <vehicle id="372" type="typeWE" route="carflow1" depart="601" />
    <vehicle id="373" type="typeNS" route="carflow3" depart="615" />
    <vehicle id="374" type="typeWE" route="carflow1" depart="617" />
    <vehicle id="375" type="typeNS" route="carflow3" depart="619" />
    <vehicle id="376" type="typeWE" route="carflow2" depart="622" />
    <vehicle id="377" type="typeNS" route="carflow4" depart="622" />
    <vehicle id="378" type="typeNS" route="carflow5" depart="622" />
    <vehicle id="379" type="typeWE" route="carflow2" depart="624" />
    <vehicle id="380" type="typeNS" route="carflow4" depart="634" />
    <vehicle id="381" type="typeNS" route="carflow4" depart="636" />
    <vehicle id="382" type="typeWE" route="carflow1" depart="639" />
    <vehicle id="383" type="typeNS" route="carflow5" depart="640" />
    <vehicle id="384" type="typeNS" route="carflow8" depart="643" />
    <vehicle id="385" type="typeWE" route="carflow1" depart="644" />
    <vehicle id="386" type="typeWE" route="carflow2" depart="644" />
    <vehicle id="387" type="typeNS" route="carflow7" depart="646" />
    <vehicle id="388" type="typeNS" route="carflow8" depart="646" />
    <vehicle id="389" type="typeWE" route="carflow2" depart="648" />
    <vehicle id="390" type="typeNS" route="carflow6" depart="651" />
    <vehicle id="391" type="typeNS" route="carflow6" depart="651" />
    <vehicle id="392" type="typeNS" route="carflow3" depart="652" />
    <vehicle id="393" type="typeNS" route="carflow8" depart="652" />
    <vehicle id="394" type="typeWE" route="carflow2" depart="656" />
    <vehicle id="395" type="typeNS" route="carflow6" depart="656" />
    <vehicle id="396" type="typeNS" route="carflow8" depart="656" />
    <vehicle id="397" type="typeWE" route="carflow1" depart="658" />
    <vehicle id="398" type="typeNS" route="carflow8" depart="658" />
    <vehicle id="399" type="typeNS" route="carflow8" depart="658" />
    <vehicle id="400" type="typeNS" route="carflow4" depart="659" />
    <vehicle id="401" type="typeWE" route="carflow1" depart="661" />
    <vehicle id="402" type="typeNS" route="carflow7" depart="661" />
    <vehicle id="403" type="typeWE" route="carflow1" depart="662" />
    <vehicle id="404" type="typeWE" route="carflow2" depart="662" />
    <vehicle id="405" type="typeNS" route="carflow7" depart="663" />
    <vehicle id="406" type="typeNS" route="carflow6" depart="666" />
    <vehicle id="407" type="typeWE" route="carflow1" depart="667" />
    <vehicle id="408" type="typeNS" route="carflow4" depart="667" />
    <vehicle id="409" type="typeWE" route="carflow2" depart="672" />
    <vehicle id="410" type="typeNS" route="carflow6" depart="673" />
    <vehicle id="411" type="typeNS" route="carflow7" depart="673" />
    <vehicle id="412" type="typeNS" route="carflow7" depart="675" />
    <vehicle id="413" type="typeNS" route="carflow4" depart="676" />
    <vehicle id="414" type="typeNS" route="carflow8" depart="678" />
    <vehicle id="415" type="typeNS" route="carflow4" depart="679" />
    <vehicle id="416" type="typeNS" route="carflow7" depart="679" />
    <vehicle id="417" type="typeWE" route="carflow1" depart="682" />
    <vehicle id="418" type="typeNS" route="carflow6" depart="683" />
    <vehicle id="419" type="typeNS" route="carflow8" depart="683" />
    <vehicle id="420" type="typeNS" route="carflow7" depart="685" />
    <vehicle id="421" type="typeNS" route="carflow3" depart="689" />
    <vehicle id="422" type="typeWE" route="carflow1" depart="690" />
    <vehicle id="423" type="typeNS" route="carflow6" depart="692" />
    <vehicle id="424" type="typeNS" route="carflow3" depart="694" />
    <vehicle id="425" type="typeNS" route="carflow4" depart="694" />
    <vehicle id="426" type="typeNS" route="carflow5" depart="694" />