<routes>
        <vType id="typeWE" accel="0.8" decel="4.5" sigma="0.5" length="5" minGap="2.5" maxSpeed="16.67"         guiShape="passenger"/>
        <vType id="typeNS" accel="0.8" decel="4.5" sigma="0.5" length="7" minGap="3" maxSpeed="25" guiShape="passenger"/>
        
        <route id="carflow1" edges="1NS1 1NS1_1" />
        <route id="carflow2" edges="1SN1 1SN1_1" />
        <route id="carflow3" edges="1WO1 1WO1_1" />
        <route id="carflow4" edges="1OW1 1OW1_1" />
        <route id="carflow5" edges="2NS1 2NS1_1" />
        <route id="carflow6" edges="2SN1 2SN1_1" />
        <route id="carflow7" edges="3NS1 3NS1_1" />
        <route id="carflow8" edges="3SN1 3SN1_1" />
    <vehicle id="0" type="typeNS" route="carflow8" depart="0" />
    <vehicle id="1" type="typeNS" route="carflow5" depart="2" />
    <vehicle id="2" type="typeNS" route="carflow7" depart="3" />
    <vehicle id="3" type="typeNS" route="carflow6" depart="5" />
    <vehicle id="4" type="typeWE" route="carflow2" depart="6" />
    <vehicle id="5" type="typeWE" route="carflow1" depart="10" />
    <vehicle id="6" type="typeNS" route="carflow4" depart="13" />
    <vehicle id="7" type="typeNS" route="carflow5" depart="15" />
    <vehicle id="8" type="typeNS" route="carflow5" depart="16" />
    <vehicle id="9" type="typeWE" route="carflow2" depart="19" />
    <vehicle id="10" type="typeNS" route="carflow5" depart="19" />
    <vehicle id="11" type="typeNS" route="carflow3" depart="23" />
    <vehicle id="12" type="typeWE" route="carflow2" depart="25" />
    <vehicle id="13" type="typeNS" route="carflow8" depart="27" />
    <vehicle id="14" type="typeWE" route="carflow2" depart="28" />
    <vehicle id="15" type="typeWE" route="carflow1" depart="29" />
    <vehicle id="16" type="typeNS" route="carflow5" depart="29" />
    <vehicle id="17" type="typeNS" route="carflow5" depart="31" />
    <vehicle id="18" type="typeWE" route="carflow1" depart="32" />
    <vehicle id="19" type="typeNS" route="carflow6" depart="32" />
    <vehicle id="20" type="typeWE" route="carflow1" depart="34" />
    <vehicle id="21" type="typeWE" route="carflow2" depart="37" />
    <vehicle id="22" type="typeNS" route="carflow4" depart="37" />
    <vehicle id="23" type="typeNS" route="carflow6" depart="37" />
    <vehicle id="24" type="typeNS" route="carflow7" depart="38" />
    <vehicle id="25" type="typeNS" route="carflow5" depart="41" />
    <vehicle id="26" type="typeNS" route="carflow3" depart="44" />
    <vehicle id="27" type="typeNS" route="carflow4" depart="45" />
    <vehicle id="28" type="typeNS" route="carflow7" depart="45" />
    <vehicle id="29" type="typeWE" route="carflow2" depart="46" />
    <vehicle id="30" type="typeNS" route="carflow6" depart="46" />
    <vehicle id="31" type="typeNS" route="carflow4" depart="47" />
    <vehicle id="32" type="typeNS" route="carflow6" depart="50" />
    <vehicle id="33" type="typeWE" route="carflow2" depart="52" />
    <vehicle id="34" type="typeNS" route="carflow3" depart="52" />
    <vehicle id="35" type="typeNS" route="carflow5" depart="52" />
    <vehicle id="36" type="typeNS" route="carflow7" depart="52" />
    <vehicle id="37" type="typeNS" route="carflow4" depart="55" />
    <vehicle id="38" type="typeNS" route="carflow4" depart="56" />
    <vehicle id="39" type="typeNS" route="carflow7" depart="57" />
    <vehicle id="40" type="typeWE" route="carflow2" depart="58" />
    <vehicle id="41" type="typeNS" route="carflow6" depart="61" />
    <vehicle id="42" type="typeWE" route="carflow1" depart="63" />
    <vehicle id="43" type="typeNS" route="carflow3" depart="63" />
    <vehicle id="44" type="typeWE" route="carflow1" depart="64" />
    <vehicle id="45" type="typeWE" route="carflow2" depart="65" />
    <vehicle id="46" type="typeWE" route="carflow1" depart="67" />
    <vehicle id="47" type="typeWE" route="carflow1" depart="67" />
    <vehicle id="48" type="typeNS" route="carflow4" depart="69" />
    <vehicle id="49" type="typeWE" route="carflow1" depart="71" />
    <vehicle id="50" type="typeNS" route="carflow4" depart="74" />
    <vehicle id="51" type="typeNS" route="carflow4" depart="75" />
    <vehicle id="52" type="typeNS" route="carflow5" depart="75" />
    <vehicle id="53" type="typeWE" route="carflow1" depart="78" />
    <vehicle id="54" type="typeWE" route="carflow1" depart="79" />
    <vehicle id="55" type="typeNS" route="carflow3" depart="80" />
    <vehicle id="56" type="typeNS" route="carflow6" depart="81" />
    <vehicle id="57" type="typeNS" route="carflow6" depart="82" />
    <vehicle id="58" type="typeWE" route="carflow1" depart="84" />
    <vehicle id="59" type="typeNS" route="carflow6" depart="86" />
    <vehicle id="60" type="typeNS" route="carflow8" depart="86" />
    <vehicle id="61" type="typeNS" route="carflow5" depart="87" />
    <vehicle id="62" type="typeNS" route="carflow7" depart="87" />
    <vehicle id="63" type="typeNS" route="carflow4" depart="88" />
    <vehicle id="64" type="typeNS" route="carflow3" depart="89" />
    <vehicle id="65" type="typeNS" route="carflow6" depart="89" />
    <vehicle id="66" type="typeWE" route="carflow2" depart="92" />
    <vehicle id="67" type="typeNS" route="carflow6" depart="93" />
    <vehicle id="68" type="typeWE" route="carflow1" depart="96" />
    <vehicle id="69" type="typeNS" route="carflow8" depart="96" />
    <vehicle id="70" type="typeNS" route="carflow8" depart="99" />
    <vehicle id="71" type="typeWE" route="carflow1" depart="100" />
    <vehicle id="72" type="typeNS" route="carflow8" depart="100" />
    <vehicle id="73" type="typeNS" route="carflow4" depart="101" />
    <vehicle id="74" type="typeNS" route="carflow6" depart="101" />
    <vehicle id="75" type="typeNS" route="carflow3" depart="104" />
    <vehicle id="76" type="typeNS" route="carflow3" depart="106" />
    <vehicle id="77" type="typeNS" route="carflow6" depart="109" />
    <vehicle id="78" type="typeWE" route="carflow1" depart="110" />
    <vehicle id="79" type="typeNS" route="carflow7" depart="112" />
    <vehicle id="80" type="typeNS" route="carflow5" depart="113" />
    <vehicle id="81" type="typeNS" route="carflow8" depart="114" />
    <vehicle id="82" type="typeNS" route="carflow4" depart="116" />
    <vehicle id="83" type="typeNS" route="carflow5" depart="117" />
    <vehicle id="84" type="typeNS" route="carflow4" depart="119" />
    <vehicle id="85" type="typeNS" route="carflow5" depart="119" />
    <vehicle id="86" type="typeNS" route="carflow7" depart="121" />
    <vehicle id="87" type="typeNS" route="carflow5" depart="123" />
    <vehicle id="88" type="typeNS" route="carflow6" depart="124" />
    <vehicle id="89" type="typeNS" route="carflow3" depart="125" />
    <vehicle id="90" type="typeNS" route="carflow3" depart="126" />
    <vehicle id="91" type="typeNS" route="carflow4" depart="129" />
    <vehicle id="92" type="typeNS" route="carflow4" depart="131" />
    <vehicle id="93" type="typeNS" route="carflow5" depart="131" />
    <vehicle id="94" type="typeNS" route="carflow5" depart="135" />
    <vehicle id="95" type="typeNS" route="carflow4" depart="136" />
    <vehicle id="96" type="typeNS" route="carflow8" depart="137" />
    <vehicle id="97" type="typeNS" route="carflow3" depart="138" />
    <vehicle id="98" type="typeWE" route="carflow1" depart="140" />
    <vehicle id="99" type="typeNS" route="carflow3" depart="140" />
    <vehicle id="100" type="typeWE" route="carflow2" depart="142" />
    <vehicle id="101" type="typeWE" route="carflow1" depart="143" />
    <vehicle id="102" type="typeWE" route="carflow2" depart="143" />
    <vehicle id="103" type="typeNS" route="carflow7" depart="145" />
    <vehicle id="104" type="typeNS" route="carflow5" depart="146" />
    <vehicle id="105" type="typeWE" route="carflow1" depart="149" />
    <vehicle id="106" type="typeNS" route="carflow5" depart="149" />
    <vehicle id="107" type="typeNS" route="carflow8" depart="150" />
    <vehicle id="108" type="typeWE" route="carflow2" depart="151" />
    <vehicle id="109" type="typeNS" route="carflow3" depart="152" />
    <vehicle id="110" type="typeNS" route="carflow3" depart="155" />
    <vehicle id="111" type="typeNS" route="carflow7" depart="155" />
    <vehicle id="112" type="typeNS" route="carflow4" depart="159" />
    <vehicle id="113" type="typeNS" route="carflow6" depart="159" />
    <vehicle id="114" type="typeNS" route="carflow8" depart="159" />
    <vehicle id="115" type="typeNS" route="carflow7" depart="160" />
    <vehicle id="116" type="typeWE" route="carflow2" depart="162" />
    <vehicle id="117" type="typeNS" route="carflow3" depart="162" />
    <vehicle id="118" type="typeNS" route="carflow3" depart="164" />
    <vehicle id="119" type="typeNS" route="carflow4" depart="166" />
    <vehicle id="120" type="typeNS" route="carflow6" depart="168" />
    <vehicle id="121" type="typeNS" route="carflow4" depart="169" />
    <vehicle id="122" type="typeNS" route="carflow3" depart="171" />
    <vehicle id="123" type="typeWE" route="carflow1" depart="172" />
    <vehicle id="124" type="typeWE" route="carflow2" depart="172" />
    <vehicle id="125" type="typeNS" route="carflow7" depart="173" />
    <vehicle id="126" type="typeNS" route="carflow3" depart="178" />
    <vehicle id="127" type="typeNS" route="carflow4" depart="179" />
    <vehicle id="128" type="typeNS" route="carflow6" depart="181" />
    <vehicle id="129" type="typeWE" route="carflow1" depart="185" />
    <vehicle id="130" type="typeNS" route="carflow8" depart="185" />
    <vehicle id="131" type="typeWE" route="carflow1" depart="186" />
    <vehicle id="132" type="typeNS" route="carflow3" depart="186" />
    <vehicle id="133" type="typeNS" route="carflow7" depart="187" />
    <vehicle id="134" type="typeNS" route="carflow5" depart="193" />
    <vehicle id="135" type="typeNS" route="carflow5" depart="194" />
    <vehicle id="136" type="typeNS" route="carflow4" depart="196" />
    <vehicle id="137" type="typeWE" route="carflow1" depart="197" />
    <vehicle id="138" type="typeWE" route="carflow2" depart="198" />
    <vehicle id="139" type="typeNS" route="carflow4" depart="201" />
    <vehicle id="140" type="typeNS" route="carflow5" depart="202" />
    <vehicle id="141" type="typeNS" route="carflow6" depart="202" />
    <vehicle id="142" type="typeNS" route="carflow3" depart="203" />
    <vehicle id="143" type="typeNS" route="carflow4" depart="203" />
    <vehicle id="144" type="typeNS" route="carflow8" depart="203" />
    <vehicle id="145" type="typeNS" route="carflow6" depart="204" />
    <vehicle id="146" type="typeNS" route="carflow6" depart="206" />
    <vehicle id="147" type="typeWE" route="carflow2" depart="208" />
    <vehicle id="148" type="typeNS" route="carflow3" depart="211" />
    <vehicle id="149" type="typeNS" route="carflow8" depart="213" />
    <vehicle id="150" type="typeNS" route="carflow8" depart="219" />
    <vehicle id="151" type="typeWE" route="carflow2" depart="221" />
    <vehicle id="152" type="typeNS" route="carflow5" depart="221" />
    <vehicle id="153" type="typeWE" route="carflow2" depart="222" />
    <vehicle id="154" type="typeWE" route="carflow1" depart="223" />
    <vehicle id="155" type="typeNS" route="carflow6" depart="223" />
    <vehicle id="156" type="typeNS" route="carflow5" depart="226" />
    <vehicle id="157" type="typeNS" route="carflow6" depart="229" />
    <vehicle id="158" type="typeNS" route="carflow8" depart="229" />
    <vehicle id="159" type="typeWE" route="carflow2" depart="230" />
    <vehicle id="160" type="typeNS" route="carflow7" depart="231" />
    <vehicle id="161" type="typeNS" route="carflow6" depart="234" />
    <vehicle id="162" type="typeWE" route="carflow1" depart="236" />
    <vehicle id="163" type="typeNS" route="carflow6" depart="237" />
    <vehicle id="164" type="typeNS" route="carflow3" depart="242" />
    <vehicle id="165" type="typeNS" route="carflow4" depart="243" />
    <vehicle id="166" type="typeNS" route="carflow7" depart="244" />
    <vehicle id="167" type="typeWE" route="carflow2" depart="248" />
    <vehicle id="168" type="typeWE" route="carflow2" depart="248" />
    <vehicle id="169" type="typeNS" route="carflow4" depart="249" />
    <vehicle id="170" type="typeNS" route="carflow8" depart="250" />
    <vehicle id="171" type="typeWE" route="carflow2" depart="253" />
    <vehicle id="172" type="typeNS" route="carflow8" depart="254" />
    <vehicle id="173" type="typeNS" route="carflow5" depart="260" />
    <vehicle id="174" type="typeNS" route="carflow6" depart="263" />
    <vehicle id="175" type="typeWE" route="carflow1" depart="264" />
    <vehicle id="176" type="typeNS" route="carflow4" depart="266" />
    <vehicle id="177" type="typeNS" route="carflow4" depart="266" />
    <vehicle id="178" type="typeWE" route="carflow1" depart="270" />
    <vehicle id="179" type="typeNS" route="carflow7" depart="270" />
    <vehicle id="180" type="typeNS" route="carflow8" depart="270" />
    <vehicle id="181" type="typeWE" route="carflow1" depart="271" />
    <vehicle id="182" type="typeWE" route="carflow2" depart="273" />
    <vehicle id="183" type="typeNS" route="carflow8" depart="274" />
    <vehicle id="184" type="typeNS" route="carflow3" depart="276" />
    <vehicle id="185" type="typeWE" route="carflow1" depart="277" />
    <vehicle id="186" type="typeNS" route="carflow3" depart="278" />
    <vehicle id="187" type="typeNS" route="carflow5" depart="278" />
    <vehicle id="188" type="typeNS" route="carflow5" depart="279" />
    <vehicle id="189" type="typeNS" route="carflow6" depart="279" />
    <vehicle id="190" type="typeNS" route="carflow3" depart="282" />
    <vehicle id="191" type="typeWE" route="carflow2" depart="286" />
    <vehicle id="192" type="typeNS" route="carflow3" depart="286" />
    <vehicle id="193" type="typeNS" route="carflow8" depart="288" />
    <vehicle id="194" type="typeNS" route="carflow6" depart="290" />
    <vehicle id="195" type="typeWE" route="carflow2" depart="291" />
    <vehicle id="196" type="typeNS" route="carflow4" depart="292" />
    <vehicle id="197" type="typeWE" route="carflow1" depart="293" />
    <vehicle id="198" type="typeWE" route="carflow1" depart="294" />
    <vehicle id="199" type="typeWE" route="carflow1" depart="295" />
    <vehicle id="200" type="typeNS" route="carflow6" depart="299" />
    <vehicle id="201" type="typeNS" route="carflow4" depart="301" />
    <vehicle id="202" type="typeWE" route="carflow1" depart="302" />
    <vehicle id="203" type="typeNS" route="carflow6" depart="302" />
    <vehicle id="204" type="typeNS" route="carflow7" depart="303" />
    <vehicle id="205" type="typeWE" route="carflow2" depart="306" />
    <vehicle id="206" type="typeWE" route="carflow2" depart="308" />
    <vehicle id="207" type="typeNS" route="carflow5" depart="311" />
    <vehicle id="208" type="typeNS" route="carflow6" depart="311" />
    <vehicle id="209" type="typeNS" route="carflow7" depart="312" />
    <vehicle id="210" type="typeWE" route="carflow2" depart="314" />
    <vehicle id="211" type="typeNS" route="carflow4" depart="314" />
    <vehicle id="212" type="typeNS" route="carflow8" depart="317" />
    <vehicle id="213" type="typeWE" route="carflow1" depart="320" />
    <vehicle id="214" type="typeWE" route="carflow1" depart="322" />
    <vehicle id="215" type="typeNS" route="carflow6" depart="322" />
    <vehicle id="216" type="typeNS" route="carflow7" depart="322" />
    <vehicle id="217" type="typeNS" route="carflow5" depart="330" />
    <vehicle id="218" type="typeNS" route="carflow5" depart="331" />
    <vehicle id="219" type="typeWE" route="carflow1" depart="333" />
    <vehicle id="220" type="typeWE" route="carflow2" depart="337" />
    <vehicle id="221" type="typeNS" route="carflow8" depart="337" />
    <vehicle id="222" type="typeNS" route="carflow3" depart="338" />
    <vehicle id="223" type="typeNS" route="carflow6" depart="338" />
    <vehicle id="224" type="typeNS" route="carflow5" depart="339" />
    <vehicle id="225" type="typeNS" route="carflow4" depart="342" />
    <vehicle id="226" type="typeWE" route="carflow1" depart="345" />
    <vehicle id="227" type="typeWE" route="carflow2" depart="345" />
    <vehicle id="228" type="typeNS" route="carflow8" depart="345" />
    <vehicle id="229" type="typeNS" route="carflow3" depart="349" />
    <vehicle id="230" type="typeWE" route="carflow1" depart="350" />
    <vehicle id="231" type="typeNS" route="carflow3" depart="350" />
    <vehicle id="232" type="typeWE" route="carflow1" depart="352" />
    <vehicle id="233" type="typeNS" route="carflow5" depart="353" />
    <vehicle id="234" type="typeNS" route="carflow6" depart="353" />
    <vehicle id="235" type="typeNS" route="carflow7" depart="354" />
    <vehicle id="236" type="typeNS" route="carflow6" depart="357" />
    <vehicle id="237" type="typeNS" route="carflow3" depart="358" />
    <vehicle id="238" type="typeNS" route="carflow8" depart="358" />
    <vehicle id="239" type="typeNS" route="carflow3" depart="359" />
    <vehicle id="240" type="typeNS" route="carflow7" depart="364" />
    <vehicle id="241" type="typeNS" route="carflow8" depart="364" />
    <vehicle id="242" type="typeNS" route="carflow3" depart="365" />
    <vehicle id="243" type="typeNS" route="carflow6" depart="367" />
    <vehicle id="244" type="typeWE" route="carflow2" depart="369" />
    <vehicle id="245" type="typeNS" route="carflow5" depart="369" />
    <vehicle id="246" type="typeNS" route="carflow7" depart="370" />
    <vehicle id="247" type="typeNS" route="carflow8" depart="370" />
    <vehicle id="248" type="typeNS" route="carflow8" depart="371" />
    <vehicle id="249" type="typeWE" route="carflow1" depart="372" />
    <vehicle id="250" type="typeNS" route="carflow4" depart="373" />
    <vehicle id="251" type="typeNS" route="carflow8" depart="374" />
    <vehicle id="252" type="typeNS" route="carflow4" depart="375" />
    <vehicle id="253" type="typeNS" route="carflow3" depart="380" />
    <vehicle id="254" type="typeNS" route="carflow7" depart="382" />
    <vehicle id="255" type="typeNS" route="carflow5" depart="390" />
    <vehicle id="256" type="typeNS" route="carflow6" depart="390" />
    <vehicle id="257" type="typeWE" route="carflow2" depart="391" />
    <vehicle id="258" type="typeNS" route="carflow3" depart="394" />
    <vehicle id="259" type="typeNS" route="carflow8" depart="398" />
    <vehicle id="260" type="typeNS" route="carflow3" depart="399" />
    <vehicle id="261" type="typeNS" route="carflow7" depart="400" />
    <vehicle id="262" type="typeWE" route="carflow1" depart="401" />
    <vehicle id="263" type="typeWE" route="carflow2" depart="401" />
    <vehicle id="264" type="typeNS" route="carflow5" depart="401" />
    <vehicle id="265" type="typeNS" route="carflow5" depart="401" />
    <vehicle id="266" type="typeNS" route="carflow8" depart="402" />
    <vehicle id="267" type="typeNS" route="carflow4" depart="406" />
    <vehicle id="268" type="typeNS" route="carflow7" depart="408" />
    <vehicle id="269" type="typeNS" route="carflow8" depart="408" />
    <vehicle id="270" type="typeWE" route="carflow1" depart="411" />
    <vehicle id="271" type="typeNS" route="carflow6" depart="411" />
    <vehicle id="272" type="typeNS" route="carflow5" depart="413" />
    <vehicle id="273" type="typeNS" route="carflow4" depart="415" />
    <vehicle id="274" type="typeNS" route="carflow6" depart="415" />
    <vehicle id="275" type="typeNS" route="carflow5" depart="418" />
    <vehicle id="276" type="typeNS" route="carflow7" depart="418" />
    <vehicle id="277" type="typeNS" route="carflow6" depart="419" />
    <vehicle id="278" type="typeNS" route="carflow5" depart="424" />
    <vehicle id="279" type="typeNS" route="carflow4" depart="425" />
    <vehicle id="280" type="typeNS" route="carflow7" depart="427" />
    <vehicle id="281" type="typeNS" route="carflow8" depart="427" />
    <vehicle id="282" type="typeNS" route="carflow6" depart="428" />
    <vehicle id="283" type="typeNS" route="carflow7" depart="428" />
    <vehicle id="284" type="typeNS" route="carflow6" depart="429" />
    <vehicle id="285" type="typeNS" route="carflow7" depart="430" />
    <vehicle id="286" type="typeNS" route="carflow8" depart="430" />
    <vehicle id="287" type="typeNS" route="carflow5" depart="433" />
    <vehicle id="288" type="typeNS" route="carflow7" depart="434" />
    <vehicle id="289" type="typeNS" route="carflow7" depart="435" />
    <vehicle id="290" type="typeNS" route="carflow5" depart="436" />
    <vehicle id="291" type="typeNS" route="carflow4" depart="437" />
    <vehicle id="292" type="typeNS" route="carflow7" depart="437" />
    <vehicle id="293" type="typeNS" route="carflow7" depart="438" />
    <vehicle id="294" type="typeNS" route="carflow8" depart="438" />
    <vehicle id="295" type="typeNS" route="carflow8" depart="439" />
    <vehicle id="296" type="typeNS" route="carflow4" depart="441" />
    <vehicle id="297" type="typeNS" route="carflow7" depart="442" />
    <vehicle id="298" type="typeNS" route="carflow4" depart="443" />
    <vehicle id="299" type="typeNS" route="carflow8" depart="444" />
    <vehicle id="300" type="typeWE" route="carflow1" depart="447" />
    <vehicle id="301" type="typeNS" route="carflow4" depart="448" />
    <vehicle id="302" type="typeWE" route="carflow2" depart="449" />
    <vehicle id="303" type="typeNS" route="carflow6" depart="451" />
    <vehicle id="304" type="typeNS" route="carflow5" depart="455" />
    <vehicle id="305" type="typeNS" route="carflow5" depart="456" />
    <vehicle id="306" type="typeNS" route="carflow6" depart="456" />
    <vehicle id="307" type="typeWE" route="carflow1" depart="459" />
    <vehicle id="308" type="typeWE" route="carflow1" depart="463" />
    <vehicle id="309" type="typeWE" route="carflow2" depart="463" />
    <vehicle id="310" type="typeNS" route="carflow5" depart="463" />
    <vehicle id="311" type="typeWE" route="carflow1" depart="464" />
    <vehicle id="312" type="typeNS" route="carflow5" depart="464" />
    <vehicle id="313" type="typeNS" route="carflow5" depart="465" />
    <vehicle id="314" type="typeNS" route="carflow5" depart="467" />
    <vehicle id="315" type="typeNS" route="carflow8" depart="467" />
    <vehicle id="316" type="typeNS" route="carflow5" depart="471" />
    <vehicle id="317" type="typeNS" route="carflow5" depart="475" />
    <vehicle id="318" type="typeWE" route="carflow1" depart="476" />
    <vehicle id="319" type="typeNS" route="carflow6" depart="476" />
    <vehicle id="320" type="typeNS" route="carflow7" depart="476" />
    <vehicle id="321" type="typeNS" route="carflow7" depart="477" />
    <vehicle id="322" type="typeWE" route="carflow2" depart="479" />
    <vehicle id="323" type="typeNS" route="carflow5" depart="480" />
    <vehicle id="324" type="typeNS" route="carflow5" depart="484" />
    <vehicle id="325" type="typeNS" route="carflow6" depart="486" />
    <vehicle id="326" type="typeNS" route="carflow4" depart="488" />
    <vehicle id="327" type="typeNS" route="carflow5" depart="488" />
    <vehicle id="328" type="typeNS" route="carflow8" depart="488" />
    <vehicle id="329" type="typeNS" route="carflow8" depart="490" />
    <vehicle id="330" type="typeNS" route="carflow5" depart="493" />
    <vehicle id="331" type="typeNS" route="carflow7" depart="493" />
    <vehicle id="332" type="typeNS" route="carflow6" depart="495" />
    <vehicle id="333" type="typeNS" route="carflow7" depart="495" />
    <vehicle id="334" type="typeNS" route="carflow5" depart="501" />
    <vehicle id="335" type="typeNS" route="carflow7" depart="501" />
    <vehicle id="336" type="typeNS" route="carflow6" depart="504" />
    <vehicle id="337" type="typeWE" route="carflow2" depart="505" />
    <vehicle id="338" type="typeNS" route="carflow3" depart="505" />
    <vehicle id="339" type="typeNS" route="carflow4" depart="506" />
    <vehicle id="340" type="typeNS" route="carflow6" depart="507" />
    <vehicle id="341" type="typeNS" route="carflow7" depart="507" />
    <vehicle id="342" type="typeNS" route="carflow6" depart="509" />
    <vehicle id="343" type="typeNS" route="carflow3" depart="510" />
    <vehicle id="344" type="typeNS" route="carflow3" depart="514" />
    <vehicle id="345" type="typeWE" route="carflow2" depart="519" />
    <vehicle id="346" type="typeWE" route="carflow2" depart="520" />
    <vehicle id="347" type="typeNS" route="carflow8" depart="520" />
    <vehicle id="348" type="typeNS" route="carflow8" depart="523" />
    <vehicle id="349" type="typeNS" route="carflow7" depart="525" />
    <vehicle id="350" type="typeWE" route="carflow1" depart="526" />
    <vehicle id="351" type="typeNS" route="carflow3" depart="526" />
    <vehicle id="352" type="typeNS" route="carflow8" depart="528" />
    <vehicle id="353" type="typeNS" route="carflow6" depart="529" />
    <vehicle id="354" type="typeNS" route="carflow6" depart="534" />
    <vehicle id="355" type="typeNS" route="carflow7" depart="534" />
    <vehicle id="356" type="typeNS" route="carflow8" depart="535" />
    <vehicle id="357" type="typeNS" route="carflow8" depart="537" />
    <vehicle id="358" type="typeWE" route="carflow2" depart="539" />
    <vehicle id="359" type="typeNS" route="carflow4" depart="539" />
    <vehicle id="360" type="typeNS" route="carflow6" depart="539" />
    <vehicle id="361" type="typeNS" route="carflow4" depart="545" />
    <vehicle id="362" type="typeNS" route="carflow7" depart="545" />
    <vehicle id="363" type="typeWE" route="carflow2" depart="554" />
    <vehicle id="364" type="typeNS" route="carflow7" depart="554" />
    <vehicle id="365" type="typeNS" route="carflow3" depart="555" />
    <vehicle id="366" type="typeNS" route="carflow6" depart="555" />
    <vehicle id="367" type="typeNS" route="carflow8" depart="558" />
    <vehicle id="368" type="typeWE" route="carflow2" depart="561" />
    <vehicle id="369" type="typeNS" route="carflow8" depart="561" />
    <vehicle id="370" type="typeWE" route="carflow1" depart="563" />
    <vehicle id="371" type="typeNS" route="carflow4" depart="563" />
    <vehicle id="372" type="typeNS" route="carflow6" depart="564" />
    <vehicle id="373" type="typeNS" route="carflow7" depart="564" />
    <vehicle id="374" type="typeWE" route="carflow2" depart="565" />
    <vehicle id="375" type="typeNS" route="carflow8" depart="569" />
    <vehicle id="376" type="typeNS" route="carflow3" depart="573" />
    <vehicle id="377" type="typeNS" route="carflow6" depart="574" />
    <vehicle id="378" type="typeNS" route="carflow6" depart="575" />
    <vehicle id="379" type="typeNS" route="carflow8" depart="576" />
    <vehicle id="380" type="typeNS" route="carflow3" depart="578" />
    <vehicle id="381" type="typeNS" route="carflow7" depart="578" />
    <vehicle id="382" type="typeWE" route="carflow2" depart="579" />
    <vehicle id="383" type="typeNS" route="carflow7" depart="580" />
    <vehicle id="384" type="typeNS" route="carflow4" depart="581" />
    <vehicle id="385" type="typeWE" route="carflow1" depart="584" />
    <vehicle id="386" type="typeWE" route="carflow2" depart="586" />
    <vehicle id="387" type="typeNS" route="carflow5" depart="586" />
    <vehicle id="388" type="typeWE" route="carflow2" depart="589" />
    <vehicle id="389" type="typeNS" route="carflow4" depart="590" />
    <vehicle id="390" type="typeNS" route="carflow8" depart="592" />
    <vehicle id="391" type="typeNS" route="carflow6" depart="593" />
    <vehicle id="392" type="typeNS" route="carflow6" depart="594" />
    <vehicle id="393" type="typeWE" route="carflow2" depart="597" />
    <vehicle id="394" type="typeNS" route="carflow8" depart="597" />
    <vehicle id="395" type="typeNS" route="carflow6" depart="600" />
    <vehicle id="396" type="typeNS" route="carflow4" depart="601" />
    <vehicle id="397" type="typeNS" route="carflow6" depart="601" />
    <vehicle id="398" type="typeNS" route="carflow3" depart="602" />
    <vehicle id="399" type="typeNS" route="carflow5" depart="604" />
    <vehicle id="400" type="typeNS" route="carflow5" depart="605" />
    <vehicle id="401" type="typeNS" route="carflow3" depart="606" />
    <vehicle id="402" type="typeNS" route="carflow4" depart="606" />
    <vehicle id="403" type="typeNS" route="carflow3" depart="608" />
    <vehicle id="404" type="typeNS" route="carflow6" depart="609" />
    <vehicle id="405" type="typeNS" route="carflow3" depart="610" />
    <vehicle id="406" type="typeNS" route="carflow4" depart="611" />
    <vehicle id="407" type="typeNS" route="carflow5" depart="612" />
    <vehicle id="408" type="typeNS" route="carflow7" depart="613" />
    <vehicle id="409" type="typeNS" route="carflow8" depart="614" />
    <vehicle id="410" type="typeNS" route="carflow8" depart="618" />
    <vehicle id="411" type="typeNS" route="carflow7" depart="619" />
    <vehicle id="412" type="typeNS" route="carflow4" depart="620" />
    <vehicle id="413" type="typeNS" route="carflow8" depart="620" />
    <vehicle id="414" type="typeNS" route="carflow4" depart="622" />
    <vehicle id="415" type="typeWE" route="carflow2" depart="623" />
    <vehicle id="416" type="typeNS" route="carflow5" depart="623" />
    <vehicle id="417" type="typeNS" route="carflow7" depart="623" />
    <vehicle id="418" type="typeNS" route="carflow3" depart="624" />
    <vehicle id="419" type="typeNS" route="carflow7" depart="625" />
    <vehicle id="420" type="typeNS" route="carflow5" depart="629" />
    <vehicle id="421" type="typeNS" route="carflow6" depart="630" />
    <vehicle id="422" type="typeNS" route="carflow3" depart="631" />
    <vehicle id="423" type="typeWE" route="carflow2" depart="632" />
    <vehicle id="424" type="typeNS" route="carflow6" depart="632" />
    <vehicle id="425" type="typeNS" route="carflow6" depart="632" />
    <vehicle id="426" type="typeNS" route="carflow4" depart="633" />