<routes>
        <vType id="Cartype" accel="0.8" decel="4.5" sigma="0.5" length="5" minGap="2.5" maxSpeed="16.67"         guiShape="passenger"/>
         
        <route id="carflow1" edges="1NS1 1NS1_1" />
        <route id="carflow2" edges="1SN1 1SN1_1" />
        <route id="carflow3" edges="1WO1 1WO1_1" />
        <route id="carflow4" edges="1OW1 1OW1_1" />
        <route id="carflow5" edges="2NS1 2NS1_1" />
        <route id="carflow6" edges="2SN1 2SN1_1" />
        <route id="carflow7" edges="3NS1 3NS1_1" />
        <route id="carflow8" edges="3SN1 3SN1_1" />
    <vehicle id="0" type="Cartype" route="carflow4" depart="34" />
    <vehicle id="1" type="Cartype" route="carflow3" depart="40" />
    <vehicle id="2" type="Cartype" route="carflow4" depart="45" />
    <vehicle id="3" type="Cartype" route="carflow3" depart="53" />
    <vehicle id="4" type="Cartype" route="carflow4" depart="58" />
    <vehicle id="5" type="Cartype" route="carflow3" depart="60" />
    <vehicle id="6" type="Cartype" route="carflow3" depart="65" />
    <vehicle id="7" type="Cartype" route="carflow3" depart="156" />
    <vehicle id="8" type="Cartype" route="carflow3" depart="175" />
    <vehicle id="9" type="Cartype" route="carflow4" depart="188" />
    <vehicle id="10" type="Cartype" route="carflow4" depart="195" />
    <vehicle id="11" type="Cartype" route="carflow3" depart="206" />
    <vehicle id="12" type="Cartype" route="carflow3" depart="231" />
    <vehicle id="13" type="Cartype" route="carflow4" depart="256" />
    <vehicle id="14" type="Cartype" route="carflow4" depart="268" />
    <vehicle id="15" type="Cartype" route="carflow4" depart="270" />
    <vehicle id="16" type="Cartype" route="carflow4" depart="299" />
    <vehicle id="17" type="Cartype" route="carflow3" depart="303" />
    <vehicle id="18" type="Cartype" route="carflow3" depart="319" />
    <vehicle id="19" type="Cartype" route="carflow4" depart="323" />
    <vehicle id="20" type="Cartype" route="carflow3" depart="343" />
    <vehicle id="21" type="Cartype" route="carflow4" depart="343" />
    <vehicle id="22" type="Cartype" route="carflow4" depart="393" />
    <vehicle id="23" type="Cartype" route="carflow4" depart="457" />
    <vehicle id="24" type="Cartype" route="carflow3" depart="495" />
    <vehicle id="25" type="Cartype" route="carflow4" depart="497" />
    <vehicle id="26" type="Cartype" route="carflow3" depart="506" />
    <vehicle id="27" type="Cartype" route="carflow4" depart="508" />
    <vehicle id="28" type="Cartype" route="carflow4" depart="579" />
    <vehicle id="29" type="Cartype" route="carflow3" depart="595" />
    <vehicle id="30" type="Cartype" route="carflow4" depart="599" />
    <vehicle id="31" type="Cartype" route="carflow3" depart="623" />
    <vehicle id="32" type="Cartype" route="carflow3" depart="625" />
    <vehicle id="33" type="Cartype" route="carflow4" depart="630" />
    <vehicle id="34" type="Cartype" route="carflow4" depart="646" />
    <vehicle id="35" type="Cartype" route="carflow3" depart="650" />
    <vehicle id="36" type="Cartype" route="carflow3" depart="659" />
    <vehicle id="37" type="Cartype" route="carflow3" depart="682" />
    <vehicle id="38" type="Cartype" route="carflow4" depart="695" />
    <vehicle id="39" type="Cartype" route="carflow3" depart="719" />
    <vehicle id="40" type="Cartype" route="carflow4" depart="726" />
    <vehicle id="41" type="Cartype" route="carflow1" depart="748" />
    <vehicle id="42" type="Cartype" route="carflow4" depart="756" />
    <vehicle id="43" type="Cartype" route="carflow4" depart="768" />
    <vehicle id="44" type="Cartype" route="carflow4" depart="782" />
    <vehicle id="45" type="Cartype" route="carflow3" depart="801" />
    <vehicle id="46" type="Cartype" route="carflow4" depart="804" />
    <vehicle id="47" type="Cartype" route="carflow3" depart="818" />
    <vehicle id="48" type="Cartype" route="carflow4" depart="868" />
    <vehicle id="49" type="Cartype" route="carflow3" depart="871" />
    <vehicle id="50" type="Cartype" route="carflow3" depart="926" />
    <vehicle id="51" type="Cartype" route="carflow3" depart="939" />
    <vehicle id="52" type="Cartype" route="carflow3" depart="942" />
    <vehicle id="53" type="Cartype" route="carflow4" depart="949" />
    <vehicle id="54" type="Cartype" route="carflow4" depart="957" />
    <vehicle id="55" type="Cartype" route="carflow4" depart="974" />
    <vehicle id="56" type="Cartype" route="carflow4" depart="995" />
    <vehicle id="57" type="Cartype" route="carflow3" depart="1002" />
    <vehicle id="58" type="Cartype" route="carflow4" depart="1027" />
    <vehicle id="59" type="Cartype" route="carflow4" depart="1041" />
    <vehicle id="60" type="Cartype" route="carflow4" depart="1057" />
    <vehicle id="61" type="Cartype" route="carflow3" depart="1075" />
    <vehicle id="62" type="Cartype" route="carflow4" depart="1093" />
    <vehicle id="63" type="Cartype" route="carflow3" depart="1326" />
    <vehicle id="64" type="Cartype" route="carflow3" depart="1328" />
    <vehicle id="65" type="Cartype" route="carflow4" depart="1367" />
    <vehicle id="66" type="Cartype" route="carflow3" depart="1371" />
    <vehicle id="67" type="Cartype" route="carflow3" depart="1378" />
    <vehicle id="68" type="Cartype" route="carflow4" depart="1400" />
    <vehicle id="69" type="Cartype" route="carflow4" depart="1445" />
    <vehicle id="70" type="Cartype" route="carflow3" depart="1447" />
    <vehicle id="71" type="Cartype" route="carflow3" depart="1450" />
    <vehicle id="72" type="Cartype" route="carflow4" depart="1479" />
    <vehicle id="73" type="Cartype" route="carflow4" depart="1480" />
    <vehicle id="74" type="Cartype" route="carflow4" depart="1484" />
    <vehicle id="75" type="Cartype" route="carflow3" depart="1495" />
    <vehicle id="76" type="Cartype" route="carflow4" depart="1514" />
    <vehicle id="77" type="Cartype" route="carflow3" depart="1519" />
    <vehicle id="78" type="Cartype" route="carflow3" depart="1521" />
    <vehicle id="79" type="Cartype" route="carflow3" depart="1535" />
    <vehicle id="80" type="Cartype" route="carflow3" depart="1547" />
    <vehicle id="81" type="Cartype" route="carflow4" depart="1553" />
    <vehicle id="82" type="Cartype" route="carflow3" depart="1557" />
    <vehicle id="83" type="Cartype" route="carflow4" depart="1569" />
    <vehicle id="84" type="Cartype" route="carflow4" depart="1577" />
    <vehicle id="85" type="Cartype" route="carflow3" depart="1586" />
    <vehicle id="86" type="Cartype" route="carflow3" depart="1627" />
    <vehicle id="87" type="Cartype" route="carflow3" depart="1641" />
    <vehicle id="88" type="Cartype" route="carflow4" depart="1682" />
    <vehicle id="89" type="Cartype" route="carflow3" depart="1685" />
    <vehicle id="90" type="Cartype" route="carflow3" depart="1728" />
    <vehicle id="91" type="Cartype" route="carflow4" depart="1736" />
    <vehicle id="92" type="Cartype" route="carflow3" depart="1766" />
    <vehicle id="93" type="Cartype" route="carflow3" depart="1771" />
    <vehicle id="94" type="Cartype" route="carflow4" depart="1804" />
    <vehicle id="95" type="Cartype" route="carflow4" depart="1807" />
    <vehicle id="96" type="Cartype" route="carflow3" depart="1818" />
    <vehicle id="97" type="Cartype" route="carflow3" depart="1843" />
    <vehicle id="98" type="Cartype" route="carflow4" depart="1855" />
    <vehicle id="99" type="Cartype" route="carflow3" depart="1910" />
    <vehicle id="100" type="Cartype" route="carflow3" depart="1913" />
    <vehicle id="101" type="Cartype" route="carflow4" depart="1925" />
    <vehicle id="102" type="Cartype" route="carflow3" depart="1935" />
    <vehicle id="103" type="Cartype" route="carflow4" depart="1953" />
    <vehicle id="104" type="Cartype" route="carflow4" depart="1954" />
    <vehicle id="105" type="Cartype" route="carflow4" depart="1955" />
    <vehicle id="106" type="Cartype" route="carflow4" depart="1963" />
    <vehicle id="107" type="Cartype" route="carflow4" depart="1981" />
    <vehicle id="108" type="Cartype" route="carflow3" depart="1989" />
    <vehicle id="109" type="Cartype" route="carflow3" depart="1995" />
    <vehicle id="110" type="Cartype" route="carflow3" depart="2002" />
    <vehicle id="111" type="Cartype" route="carflow4" depart="2026" />
    <vehicle id="112" type="Cartype" route="carflow4" depart="2062" />
    <vehicle id="113" type="Cartype" route="carflow3" depart="2105" />
    <vehicle id="114" type="Cartype" route="carflow4" depart="2175" />
    <vehicle id="115" type="Cartype" route="carflow4" depart="2246" />
    <vehicle id="116" type="Cartype" route="carflow6" depart="2246" />
    <vehicle id="117" type="Cartype" route="carflow4" depart="2247" />
    <vehicle id="118" type="Cartype" route="carflow4" depart="2313" />
    <vehicle id="119" type="Cartype" route="carflow7" depart="2322" />
    <vehicle id="120" type="Cartype" route="carflow4" depart="2342" />
    <vehicle id="121" type="Cartype" route="carflow4" depart="2409" />
    <vehicle id="122" type="Cartype" route="carflow3" depart="2411" />
    <vehicle id="123" type="Cartype" route="carflow4" depart="2414" />
    <vehicle id="124" type="Cartype" route="carflow3" depart="2426" />
    <vehicle id="125" type="Cartype" route="carflow4" depart="2438" />
    <vehicle id="126" type="Cartype" route="carflow3" depart="2501" />
    <vehicle id="127" type="Cartype" route="carflow4" depart="2536" />
    <vehicle id="128" type="Cartype" route="carflow3" depart="2581" />
    <vehicle id="129" type="Cartype" route="carflow4" depart="2604" />
    <vehicle id="130" type="Cartype" route="carflow3" depart="2606" />
    <vehicle id="131" type="Cartype" route="carflow3" depart="2626" />
    <vehicle id="132" type="Cartype" route="carflow7" depart="2632" />
    <vehicle id="133" type="Cartype" route="carflow3" depart="2693" />
    <vehicle id="134" type="Cartype" route="carflow4" depart="2714" />
    <vehicle id="135" type="Cartype" route="carflow3" depart="2752" />
    <vehicle id="136" type="Cartype" route="carflow4" depart="2752" />
    <vehicle id="137" type="Cartype" route="carflow3" depart="2791" />
    <vehicle id="138" type="Cartype" route="carflow7" depart="2792" />
    <vehicle id="139" type="Cartype" route="carflow3" depart="2817" />
    <vehicle id="140" type="Cartype" route="carflow4" depart="2817" />
    <vehicle id="141" type="Cartype" route="carflow3" depart="2844" />
    <vehicle id="142" type="Cartype" route="carflow1" depart="2867" />
    <vehicle id="143" type="Cartype" route="carflow4" depart="2867" />
    <vehicle id="144" type="Cartype" route="carflow4" depart="2873" />
    <vehicle id="145" type="Cartype" route="carflow3" depart="2906" />
    <vehicle id="146" type="Cartype" route="carflow3" depart="2924" />
    <vehicle id="147" type="Cartype" route="carflow4" depart="2968" />
    <vehicle id="148" type="Cartype" route="carflow4" depart="2969" />
    <vehicle id="149" type="Cartype" route="carflow4" depart="2970" />
    <vehicle id="150" type="Cartype" route="carflow5" depart="3015" />
    <vehicle id="151" type="Cartype" route="carflow4" depart="3023" />
    <vehicle id="152" type="Cartype" route="carflow4" depart="3028" />
    <vehicle id="153" type="Cartype" route="carflow3" depart="3041" />
    <vehicle id="154" type="Cartype" route="carflow3" depart="3090" />
    <vehicle id="155" type="Cartype" route="carflow4" depart="3098" />
    <vehicle id="156" type="Cartype" route="carflow3" depart="3107" />
    <vehicle id="157" type="Cartype" route="carflow3" depart="3109" />
    <vehicle id="158" type="Cartype" route="carflow3" depart="3158" />
    <vehicle id="159" type="Cartype" route="carflow4" depart="3161" />
    <vehicle id="160" type="Cartype" route="carflow3" depart="3183" />
    <vehicle id="161" type="Cartype" route="carflow4" depart="3190" />
    <vehicle id="162" type="Cartype" route="carflow3" depart="3206" />
    <vehicle id="163" type="Cartype" route="carflow3" depart="3207" />
    <vehicle id="164" type="Cartype" route="carflow3" depart="3223" />
    <vehicle id="165" type="Cartype" route="carflow4" depart="3223" />
    <vehicle id="166" type="Cartype" route="carflow4" depart="3237" />
    <vehicle id="167" type="Cartype" route="carflow6" depart="3248" />
    <vehicle id="168" type="Cartype" route="carflow4" depart="3257" />
    <vehicle id="169" type="Cartype" route="carflow3" depart="3262" />
    <vehicle id="170" type="Cartype" route="carflow3" depart="3271" />
    <vehicle id="171" type="Cartype" route="carflow3" depart="3288" />
    <vehicle id="172" type="Cartype" route="carflow3" depart="3304" />
    <vehicle id="173" type="Cartype" route="carflow4" depart="3309" />
    <vehicle id="174" type="Cartype" route="carflow3" depart="3354" />
    <vehicle id="175" type="Cartype" route="carflow3" depart="3355" />
    <vehicle id="176" type="Cartype" route="carflow4" depart="3360" />
    <vehicle id="177" type="Cartype" route="carflow4" depart="3363" />
    <vehicle id="178" type="Cartype" route="carflow3" depart="3368" />
    <vehicle id="179" type="Cartype" route="carflow3" depart="3376" />
    <vehicle id="180" type="Cartype" route="carflow3" depart="3421" />
    <vehicle id="181" type="Cartype" route="carflow3" depart="3458" />
    <vehicle id="182" type="Cartype" route="carflow3" depart="3493" />
    <vehicle id="183" type="Cartype" route="carflow3" depart="3501" />
    <vehicle id="184" type="Cartype" route="carflow4" depart="3519" />
    <vehicle id="185" type="Cartype" route="carflow4" depart="3536" />
    <vehicle id="186" type="Cartype" route="carflow3" depart="3539" />
    <vehicle id="187" type="Cartype" route="carflow4" depart="3554" />
    <vehicle id="188" type="Cartype" route="carflow4" depart="3560" />
</routes>
