<routes>
        <vType id="Cartype" accel="0.8" decel="4.5" sigma="0.5" length="5" minGap="2.5" maxSpeed="16.67"         guiShape="passenger"/>
         
        <route id="carflow1" edges="1NS1 1NS1_1" />
        <route id="carflow2" edges="1SN1 1SN1_1" />
        <route id="carflow3" edges="1WO1 1WO1_1" />
        <route id="carflow4" edges="1OW1 1OW1_1" />
        <route id="carflow5" edges="2NS1 2NS1_1" />
        <route id="carflow6" edges="2SN1 2SN1_1" />
        <route id="carflow7" edges="3NS1 3NS1_1" />
        <route id="carflow8" edges="3SN1 3SN1_1" />
    <vehicle id="0" type="Cartype" route="carflow4" depart="10" />
    <vehicle id="1" type="Cartype" route="carflow3" depart="13" />
    <vehicle id="2" type="Cartype" route="carflow3" depart="14" />
    <vehicle id="3" type="Cartype" route="carflow4" depart="14" />
    <vehicle id="4" type="Cartype" route="carflow4" depart="23" />
    <vehicle id="5" type="Cartype" route="carflow3" depart="26" />
    <vehicle id="6" type="Cartype" route="carflow4" depart="86" />
    <vehicle id="7" type="Cartype" route="carflow3" depart="89" />
    <vehicle id="8" type="Cartype" route="carflow3" depart="150" />
    <vehicle id="9" type="Cartype" route="carflow3" depart="188" />
    <vehicle id="10" type="Cartype" route="carflow4" depart="215" />
    <vehicle id="11" type="Cartype" route="carflow4" depart="279" />
    <vehicle id="12" type="Cartype" route="carflow3" depart="332" />
    <vehicle id="13" type="Cartype" route="carflow4" depart="342" />
    <vehicle id="14" type="Cartype" route="carflow3" depart="353" />
    <vehicle id="15" type="Cartype" route="carflow3" depart="359" />
    <vehicle id="16" type="Cartype" route="carflow3" depart="360" />
    <vehicle id="17" type="Cartype" route="carflow4" depart="403" />
    <vehicle id="18" type="Cartype" route="carflow3" depart="409" />
    <vehicle id="19" type="Cartype" route="carflow4" depart="434" />
    <vehicle id="20" type="Cartype" route="carflow3" depart="444" />
    <vehicle id="21" type="Cartype" route="carflow3" depart="457" />
    <vehicle id="22" type="Cartype" route="carflow7" depart="489" />
    <vehicle id="23" type="Cartype" route="carflow3" depart="595" />
    <vehicle id="24" type="Cartype" route="carflow3" depart="636" />
    <vehicle id="25" type="Cartype" route="carflow4" depart="660" />
    <vehicle id="26" type="Cartype" route="carflow3" depart="668" />
    <vehicle id="27" type="Cartype" route="carflow4" depart="742" />
    <vehicle id="28" type="Cartype" route="carflow3" depart="770" />
    <vehicle id="29" type="Cartype" route="carflow3" depart="813" />
    <vehicle id="30" type="Cartype" route="carflow3" depart="820" />
    <vehicle id="31" type="Cartype" route="carflow4" depart="882" />
    <vehicle id="32" type="Cartype" route="carflow4" depart="917" />
    <vehicle id="33" type="Cartype" route="carflow3" depart="928" />
    <vehicle id="34" type="Cartype" route="carflow3" depart="965" />
    <vehicle id="35" type="Cartype" route="carflow3" depart="971" />
    <vehicle id="36" type="Cartype" route="carflow3" depart="979" />
    <vehicle id="37" type="Cartype" route="carflow3" depart="995" />
    <vehicle id="38" type="Cartype" route="carflow4" depart="1035" />
    <vehicle id="39" type="Cartype" route="carflow4" depart="1042" />
    <vehicle id="40" type="Cartype" route="carflow7" depart="1044" />
    <vehicle id="41" type="Cartype" route="carflow3" depart="1105" />
    <vehicle id="42" type="Cartype" route="carflow4" depart="1106" />
    <vehicle id="43" type="Cartype" route="carflow4" depart="1134" />
    <vehicle id="44" type="Cartype" route="carflow3" depart="1146" />
    <vehicle id="45" type="Cartype" route="carflow3" depart="1182" />
    <vehicle id="46" type="Cartype" route="carflow4" depart="1213" />
    <vehicle id="47" type="Cartype" route="carflow4" depart="1215" />
    <vehicle id="48" type="Cartype" route="carflow6" depart="1223" />
    <vehicle id="49" type="Cartype" route="carflow8" depart="1224" />
    <vehicle id="50" type="Cartype" route="carflow3" depart="1236" />
    <vehicle id="51" type="Cartype" route="carflow4" depart="1247" />
    <vehicle id="52" type="Cartype" route="carflow4" depart="1269" />
    <vehicle id="53" type="Cartype" route="carflow3" depart="1275" />
    <vehicle id="54" type="Cartype" route="carflow3" depart="1293" />
    <vehicle id="55" type="Cartype" route="carflow4" depart="1304" />
    <vehicle id="56" type="Cartype" route="carflow3" depart="1327" />
    <vehicle id="57" type="Cartype" route="carflow3" depart="1350" />
    <vehicle id="58" type="Cartype" route="carflow3" depart="1376" />
    <vehicle id="59" type="Cartype" route="carflow4" depart="1419" />
    <vehicle id="60" type="Cartype" route="carflow3" depart="1429" />
    <vehicle id="61" type="Cartype" route="carflow4" depart="1429" />
    <vehicle id="62" type="Cartype" route="carflow3" depart="1439" />
    <vehicle id="63" type="Cartype" route="carflow8" depart="1443" />
    <vehicle id="64" type="Cartype" route="carflow3" depart="1502" />
    <vehicle id="65" type="Cartype" route="carflow4" depart="1527" />
    <vehicle id="66" type="Cartype" route="carflow3" depart="1538" />
    <vehicle id="67" type="Cartype" route="carflow4" depart="1552" />
    <vehicle id="68" type="Cartype" route="carflow5" depart="1575" />
    <vehicle id="69" type="Cartype" route="carflow7" depart="1583" />
    <vehicle id="70" type="Cartype" route="carflow3" depart="1607" />
    <vehicle id="71" type="Cartype" route="carflow4" depart="1616" />
    <vehicle id="72" type="Cartype" route="carflow3" depart="1617" />
    <vehicle id="73" type="Cartype" route="carflow3" depart="1618" />
    <vehicle id="74" type="Cartype" route="carflow4" depart="1626" />
    <vehicle id="75" type="Cartype" route="carflow3" depart="1643" />
    <vehicle id="76" type="Cartype" route="carflow4" depart="1647" />
    <vehicle id="77" type="Cartype" route="carflow4" depart="1654" />
    <vehicle id="78" type="Cartype" route="carflow4" depart="1680" />
    <vehicle id="79" type="Cartype" route="carflow3" depart="1689" />
    <vehicle id="80" type="Cartype" route="carflow3" depart="1712" />
    <vehicle id="81" type="Cartype" route="carflow3" depart="1737" />
    <vehicle id="82" type="Cartype" route="carflow4" depart="1755" />
    <vehicle id="83" type="Cartype" route="carflow3" depart="1805" />
    <vehicle id="84" type="Cartype" route="carflow3" depart="1832" />
    <vehicle id="85" type="Cartype" route="carflow4" depart="1882" />
    <vehicle id="86" type="Cartype" route="carflow3" depart="1896" />
    <vehicle id="87" type="Cartype" route="carflow3" depart="1919" />
    <vehicle id="88" type="Cartype" route="carflow4" depart="1941" />
    <vehicle id="89" type="Cartype" route="carflow4" depart="1990" />
    <vehicle id="90" type="Cartype" route="carflow3" depart="1997" />
    <vehicle id="91" type="Cartype" route="carflow4" depart="1997" />
    <vehicle id="92" type="Cartype" route="carflow4" depart="2005" />
    <vehicle id="93" type="Cartype" route="carflow4" depart="2026" />
    <vehicle id="94" type="Cartype" route="carflow3" depart="2066" />
    <vehicle id="95" type="Cartype" route="carflow4" depart="2102" />
    <vehicle id="96" type="Cartype" route="carflow3" depart="2132" />
    <vehicle id="97" type="Cartype" route="carflow7" depart="2190" />
    <vehicle id="98" type="Cartype" route="carflow4" depart="2302" />
    <vehicle id="99" type="Cartype" route="carflow3" depart="2308" />
    <vehicle id="100" type="Cartype" route="carflow3" depart="2313" />
    <vehicle id="101" type="Cartype" route="carflow3" depart="2319" />
    <vehicle id="102" type="Cartype" route="carflow3" depart="2338" />
    <vehicle id="103" type="Cartype" route="carflow4" depart="2345" />
    <vehicle id="104" type="Cartype" route="carflow3" depart="2348" />
    <vehicle id="105" type="Cartype" route="carflow6" depart="2350" />
    <vehicle id="106" type="Cartype" route="carflow4" depart="2362" />
    <vehicle id="107" type="Cartype" route="carflow4" depart="2409" />
    <vehicle id="108" type="Cartype" route="carflow4" depart="2425" />
    <vehicle id="109" type="Cartype" route="carflow4" depart="2455" />
    <vehicle id="110" type="Cartype" route="carflow3" depart="2468" />
    <vehicle id="111" type="Cartype" route="carflow3" depart="2469" />
    <vehicle id="112" type="Cartype" route="carflow3" depart="2550" />
    <vehicle id="113" type="Cartype" route="carflow3" depart="2564" />
    <vehicle id="114" type="Cartype" route="carflow3" depart="2586" />
    <vehicle id="115" type="Cartype" route="carflow4" depart="2612" />
    <vehicle id="116" type="Cartype" route="carflow4" depart="2675" />
    <vehicle id="117" type="Cartype" route="carflow3" depart="2678" />
    <vehicle id="118" type="Cartype" route="carflow3" depart="2698" />
    <vehicle id="119" type="Cartype" route="carflow4" depart="2712" />
    <vehicle id="120" type="Cartype" route="carflow4" depart="2734" />
    <vehicle id="121" type="Cartype" route="carflow4" depart="2759" />
    <vehicle id="122" type="Cartype" route="carflow4" depart="2760" />
    <vehicle id="123" type="Cartype" route="carflow3" depart="2762" />
    <vehicle id="124" type="Cartype" route="carflow4" depart="2782" />
    <vehicle id="125" type="Cartype" route="carflow3" depart="2808" />
    <vehicle id="126" type="Cartype" route="carflow4" depart="2846" />
    <vehicle id="127" type="Cartype" route="carflow3" depart="2864" />
    <vehicle id="128" type="Cartype" route="carflow4" depart="2901" />
    <vehicle id="129" type="Cartype" route="carflow4" depart="2902" />
    <vehicle id="130" type="Cartype" route="carflow4" depart="2910" />
    <vehicle id="131" type="Cartype" route="carflow3" depart="2940" />
    <vehicle id="132" type="Cartype" route="carflow1" depart="2987" />
    <vehicle id="133" type="Cartype" route="carflow4" depart="3059" />
    <vehicle id="134" type="Cartype" route="carflow5" depart="3075" />
    <vehicle id="135" type="Cartype" route="carflow4" depart="3134" />
    <vehicle id="136" type="Cartype" route="carflow3" depart="3183" />
    <vehicle id="137" type="Cartype" route="carflow4" depart="3246" />
    <vehicle id="138" type="Cartype" route="carflow3" depart="3261" />
    <vehicle id="139" type="Cartype" route="carflow4" depart="3286" />
    <vehicle id="140" type="Cartype" route="carflow2" depart="3305" />
    <vehicle id="141" type="Cartype" route="carflow3" depart="3307" />
    <vehicle id="142" type="Cartype" route="carflow4" depart="3314" />
    <vehicle id="143" type="Cartype" route="carflow3" depart="3359" />
    <vehicle id="144" type="Cartype" route="carflow3" depart="3371" />
    <vehicle id="145" type="Cartype" route="carflow3" depart="3372" />
    <vehicle id="146" type="Cartype" route="carflow4" depart="3374" />
    <vehicle id="147" type="Cartype" route="carflow4" depart="3397" />
    <vehicle id="148" type="Cartype" route="carflow3" depart="3399" />
    <vehicle id="149" type="Cartype" route="carflow3" depart="3421" />
    <vehicle id="150" type="Cartype" route="carflow4" depart="3473" />
    <vehicle id="151" type="Cartype" route="carflow4" depart="3497" />
    <vehicle id="152" type="Cartype" route="carflow4" depart="3509" />
    <vehicle id="153" type="Cartype" route="carflow3" depart="3538" />
    <vehicle id="154" type="Cartype" route="carflow3" depart="3550" />
    <vehicle id="155" type="Cartype" route="carflow3" depart="3563" />
    <vehicle id="156" type="Cartype" route="carflow7" depart="3594" />
</routes>
