<?xml version="1.0" encoding="UTF-8"?> 
<additional>

	 <tlLogic id="C1" type="static" programID="1" offset="-25.317189"> 
             <phase duration="-6.261531" state="GGgrrrGGgrrr"/> 
             <phase duration="3"  state="yygrrryygrrr"/> 
             <phase duration="-4.174354" state="rrGrrrrrGrrr"/> 
             <phase duration="3"  state="rryrrrrryrrr"/> 
             <phase duration="-6.261531" state="rrrGGgrrrGGg"/> 
             <phase duration="3"  state="rrryygrrryyg"/> 
             <phase duration="-4.174354" state="rrrrrGrrrrrG"/> 
             <phase duration="3"  state="rrrrryrrrrry"/> 
         </tlLogic> 

	 <tlLogic id="C2" type="static" programID="1" offset="-13.662673"> 
             <phase duration="-6.261531" state="GGgrrrGGgrrr"/> 
             <phase duration="3"  state="yygrrryygrrr"/> 
             <phase duration="-2.087177" state="rrGrrrrrGrrr"/> 
             <phase duration="3"  state="rryrrrrryrrr"/> 
             <phase duration="-10.435885" state="rrrGGgrrrGGg"/> 
             <phase duration="3"  state="rrryygrrryyg"/> 
             <phase duration="-2.087177" state="rrrrrGrrrrrG"/> 
             <phase duration="3"  state="rrrrryrrrrry"/> 
         </tlLogic> 

	 <tlLogic id="C3" type="static" programID="1" offset="-62.796850"> 
             <phase duration="-6.261531" state="GGgrrrGGgrrr"/> 
             <phase duration="3"  state="yygrrryygrrr"/> 
             <phase duration="-8.348708" state="rrGrrrrrGrrr"/> 
             <phase duration="3"  state="rryrrrrryrrr"/> 
             <phase duration="-4.174354" state="rrrGGgrrrGGg"/> 
             <phase duration="3"  state="rrryygrrryyg"/> 
             <phase duration="-2.087177" state="rrrrrGrrrrrG"/> 
             <phase duration="3"  state="rrrrryrrrrry"/> 
         </tlLogic> 

</additional>

