<routes>
        <vType id="Cartype" accel="0.8" decel="4.5" sigma="0.5" length="5" minGap="2.5" maxSpeed="16.67"         guiShape="passenger"/>
         
        <route id="carflow1" edges="2NS1 2NS1_1" />
        <route id="carflow2" edges="2SN1 2SN1_1" />
        <route id="carflow3" edges="2WO1 2WO1_1" />
        <route id="carflow4" edges="2OW1 2OW1_1" />
    <vehicle id="0" type="Cartype" route="carflow2" depart="109" />
    <vehicle id="1" type="Cartype" route="carflow3" depart="181" />
    <vehicle id="2" type="Cartype" route="carflow4" depart="191" />
    <vehicle id="3" type="Cartype" route="carflow3" depart="219" />
    <vehicle id="4" type="Cartype" route="carflow4" depart="319" />
    <vehicle id="5" type="Cartype" route="carflow1" depart="320" />
    <vehicle id="6" type="Cartype" route="carflow4" depart="380" />
    <vehicle id="7" type="Cartype" route="carflow4" depart="430" />
    <vehicle id="8" type="Cartype" route="carflow3" depart="465" />
    <vehicle id="9" type="Cartype" route="carflow4" depart="483" />
    <vehicle id="10" type="Cartype" route="carflow3" depart="613" />
    <vehicle id="11" type="Cartype" route="carflow1" depart="654" />
    <vehicle id="12" type="Cartype" route="carflow4" depart="814" />
    <vehicle id="13" type="Cartype" route="carflow4" depart="937" />
    <vehicle id="14" type="Cartype" route="carflow4" depart="993" />
    <vehicle id="15" type="Cartype" route="carflow4" depart="1267" />
    <vehicle id="16" type="Cartype" route="carflow1" depart="1273" />
    <vehicle id="17" type="Cartype" route="carflow3" depart="1281" />
    <vehicle id="18" type="Cartype" route="carflow3" depart="1443" />
    <vehicle id="19" type="Cartype" route="carflow1" depart="1556" />
    <vehicle id="20" type="Cartype" route="carflow3" depart="1639" />
    <vehicle id="21" type="Cartype" route="carflow3" depart="1670" />
    <vehicle id="22" type="Cartype" route="carflow4" depart="2259" />
    <vehicle id="23" type="Cartype" route="carflow2" depart="2305" />
    <vehicle id="24" type="Cartype" route="carflow2" depart="2347" />
    <vehicle id="25" type="Cartype" route="carflow1" depart="2407" />
    <vehicle id="26" type="Cartype" route="carflow4" depart="2684" />
    <vehicle id="27" type="Cartype" route="carflow2" depart="2788" />
    <vehicle id="28" type="Cartype" route="carflow3" depart="2793" />
    <vehicle id="29" type="Cartype" route="carflow2" depart="2867" />
    <vehicle id="30" type="Cartype" route="carflow3" depart="2879" />
    <vehicle id="31" type="Cartype" route="carflow3" depart="2978" />
    <vehicle id="32" type="Cartype" route="carflow4" depart="3018" />
    <vehicle id="33" type="Cartype" route="carflow3" depart="3061" />
    <vehicle id="34" type="Cartype" route="carflow2" depart="3105" />
    <vehicle id="35" type="Cartype" route="carflow4" depart="3170" />
    <vehicle id="36" type="Cartype" route="carflow1" depart="3252" />
    <vehicle id="37" type="Cartype" route="carflow3" depart="3321" />
    <vehicle id="38" type="Cartype" route="carflow2" depart="3459" />
    <vehicle id="39" type="Cartype" route="carflow4" depart="3472" />
    <vehicle id="40" type="Cartype" route="carflow1" depart="3485" />
    <vehicle id="41" type="Cartype" route="carflow2" depart="3502" />
    <vehicle id="42" type="Cartype" route="carflow1" depart="3517" />
    <vehicle id="43" type="Cartype" route="carflow2" depart="3538" />
    <vehicle id="44" type="Cartype" route="carflow4" depart="3539" />
</routes>
