<?xml version="1.0" encoding="UTF-8"?>

<!-- generated on 01/15/20 14:44:48 by Eclipse SUMO netedit Version 1.3.1
<configuration xmlns:xsi="http://www.w3.org/2001/XMLSchema-instance" xsi:noNamespaceSchemaLocation="http://sumo.dlr.de/xsd/netconvertConfiguration.xsd">

    <input>
        <sumo-net-file value="C:\Users\Admin\OneDrive\FH%20Mechatronik\3.%20Semester\Projekt%20Simulation%20und%20Optimierung\Project\traffyKING\Sumo_Scenarios\Cross_3_3\Data\Cross_3_3.net.xml"/>
    </input>

    <output>
        <output-file value="C:\Users\Admin\OneDrive\FH%20Mechatronik\3.%20Semester\Projekt%20Simulation%20und%20Optimierung\Project\traffyKING\Sumo_Scenarios\Cross_3_3\Data\Cross_3_3.net.xml"/>
    </output>

    <processing>
        <geometry.max-grade.fix value="false"/>
        <offset.disable-normalization value="true"/>
        <opposites.guess.fix-lengths value="true"/>
        <lefthand value="false"/>
    </processing>

    <junctions>
        <no-turnarounds value="true"/>
        <junctions.corner-detail value="5"/>
        <junctions.limit-turn-speed value="5.5"/>
        <rectangular-lane-cut value="false"/>
    </junctions>

    <pedestrian>
        <walkingareas value="false"/>
    </pedestrian>

</configuration>
-->

<net version="1.3" junctionCornerDetail="5" limitTurnSpeed="5.50" xmlns:xsi="http://www.w3.org/2001/XMLSchema-instance" xsi:noNamespaceSchemaLocation="http://sumo.dlr.de/xsd/net_file.xsd">

    <location netOffset="0.00,0.00" convBoundary="-600.00,-900.00,600.00,300.00" origBoundary="-10000000000.00,-10000000000.00,10000000000.00,10000000000.00" projParameter="!"/>

    <edge id=":C1_0" function="internal">
        <lane id=":C1_0_0" index="0" speed="7.33" length="11.73" shape="-304.80,10.40 -305.15,6.55 -306.20,3.80 -307.95,2.15 -310.40,1.60"/>
    </edge>
    <edge id=":C1_1" function="internal">
        <lane id=":C1_1_0" index="0" speed="13.89" length="21.09" shape="-304.80,10.40 -304.30,3.63 -303.20,-1.88 -302.10,-6.45 -301.60,-10.40"/>
    </edge>
    <edge id=":C1_2" function="internal">
        <lane id=":C1_2_0" index="0" speed="9.26" length="10.03" shape="-301.60,10.40 -300.85,5.15 -298.60,1.40 -298.30,1.22"/>
    </edge>
    <edge id=":C1_12" function="internal">
        <lane id=":C1_12_0" index="0" speed="9.26" length="9.33" shape="-298.30,1.22 -294.85,-0.85 -289.60,-1.60"/>
    </edge>
    <edge id=":C1_3" function="internal">
        <lane id=":C1_3_0" index="0" speed="7.33" length="11.73" shape="-289.60,4.80 -293.45,5.15 -296.20,6.20 -297.85,7.95 -298.40,10.40"/>
    </edge>
    <edge id=":C1_4" function="internal">
        <lane id=":C1_4_0" index="0" speed="13.89" length="21.09" shape="-289.60,4.80 -296.37,4.30 -301.88,3.20 -306.45,2.10 -310.40,1.60"/>
    </edge>
    <edge id=":C1_5" function="internal">
        <lane id=":C1_5_0" index="0" speed="9.26" length="10.03" shape="-289.60,1.60 -294.85,0.85 -298.60,-1.40 -298.78,-1.70"/>
    </edge>
    <edge id=":C1_13" function="internal">
        <lane id=":C1_13_0" index="0" speed="9.26" length="9.33" shape="-298.78,-1.70 -300.85,-5.15 -301.60,-10.40"/>
    </edge>
    <edge id=":C1_6" function="internal">
        <lane id=":C1_6_0" index="0" speed="7.33" length="11.73" shape="-295.20,-10.40 -294.85,-6.55 -293.80,-3.80 -292.05,-2.15 -289.60,-1.60"/>
    </edge>
    <edge id=":C1_7" function="internal">
        <lane id=":C1_7_0" index="0" speed="13.89" length="21.09" shape="-295.20,-10.40 -295.70,-3.63 -296.80,1.88 -297.90,6.45 -298.40,10.40"/>
    </edge>
    <edge id=":C1_8" function="internal">
        <lane id=":C1_8_0" index="0" speed="9.26" length="10.03" shape="-298.40,-10.40 -299.15,-5.15 -301.40,-1.40 -301.70,-1.22"/>
    </edge>
    <edge id=":C1_14" function="internal">
        <lane id=":C1_14_0" index="0" speed="9.26" length="9.33" shape="-301.70,-1.22 -305.15,0.85 -310.40,1.60"/>
    </edge>
    <edge id=":C1_9" function="internal">
        <lane id=":C1_9_0" index="0" speed="7.33" length="11.73" shape="-310.40,-4.80 -306.55,-5.15 -303.80,-6.20 -302.15,-7.95 -301.60,-10.40"/>
    </edge>
    <edge id=":C1_10" function="internal">
        <lane id=":C1_10_0" index="0" speed="13.89" length="21.09" shape="-310.40,-4.80 -303.63,-4.30 -298.13,-3.20 -293.55,-2.10 -289.60,-1.60"/>
    </edge>
    <edge id=":C1_11" function="internal">
        <lane id=":C1_11_0" index="0" speed="9.26" length="10.03" shape="-310.40,-1.60 -305.15,-0.85 -301.40,1.40 -301.22,1.70"/>
    </edge>
    <edge id=":C1_15" function="internal">
        <lane id=":C1_15_0" index="0" speed="9.26" length="9.33" shape="-301.22,1.70 -299.15,5.15 -298.40,10.40"/>
    </edge>
    <edge id=":C2_0" function="internal">
        <lane id=":C2_0_0" index="0" speed="7.33" length="11.73" shape="-4.80,10.40 -5.15,6.55 -6.20,3.80 -7.95,2.15 -10.40,1.60"/>
    </edge>
    <edge id=":C2_1" function="internal">
        <lane id=":C2_1_0" index="0" speed="13.89" length="21.09" shape="-4.80,10.40 -4.30,3.63 -3.20,-1.88 -2.10,-6.45 -1.60,-10.40"/>
    </edge>
    <edge id=":C2_2" function="internal">
        <lane id=":C2_2_0" index="0" speed="9.26" length="10.03" shape="-1.60,10.40 -0.85,5.15 1.40,1.40 1.70,1.22"/>
    </edge>
    <edge id=":C2_12" function="internal">
        <lane id=":C2_12_0" index="0" speed="9.26" length="9.33" shape="1.70,1.22 5.15,-0.85 10.40,-1.60"/>
    </edge>
    <edge id=":C2_3" function="internal">
        <lane id=":C2_3_0" index="0" speed="7.33" length="11.73" shape="10.40,4.80 6.55,5.15 3.80,6.20 2.15,7.95 1.60,10.40"/>
    </edge>
    <edge id=":C2_4" function="internal">
        <lane id=":C2_4_0" index="0" speed="13.89" length="21.09" shape="10.40,4.80 3.63,4.30 -1.88,3.20 -6.45,2.10 -10.40,1.60"/>
    </edge>
    <edge id=":C2_5" function="internal">
        <lane id=":C2_5_0" index="0" speed="9.26" length="10.03" shape="10.40,1.60 5.15,0.85 1.40,-1.40 1.22,-1.70"/>
    </edge>
    <edge id=":C2_13" function="internal">
        <lane id=":C2_13_0" index="0" speed="9.26" length="9.33" shape="1.22,-1.70 -0.85,-5.15 -1.60,-10.40"/>
    </edge>
    <edge id=":C2_6" function="internal">
        <lane id=":C2_6_0" index="0" speed="7.33" length="11.73" shape="4.80,-10.40 5.15,-6.55 6.20,-3.80 7.95,-2.15 10.40,-1.60"/>
    </edge>
    <edge id=":C2_7" function="internal">
        <lane id=":C2_7_0" index="0" speed="13.89" length="21.09" shape="4.80,-10.40 4.30,-3.63 3.20,1.88 2.10,6.45 1.60,10.40"/>
    </edge>
    <edge id=":C2_8" function="internal">
        <lane id=":C2_8_0" index="0" speed="9.26" length="10.03" shape="1.60,-10.40 0.85,-5.15 -1.40,-1.40 -1.70,-1.22"/>
    </edge>
    <edge id=":C2_14" function="internal">
        <lane id=":C2_14_0" index="0" speed="9.26" length="9.33" shape="-1.70,-1.22 -5.15,0.85 -10.40,1.60"/>
    </edge>
    <edge id=":C2_9" function="internal">
        <lane id=":C2_9_0" index="0" speed="7.33" length="11.73" shape="-10.40,-4.80 -6.55,-5.15 -3.80,-6.20 -2.15,-7.95 -1.60,-10.40"/>
    </edge>
    <edge id=":C2_10" function="internal">
        <lane id=":C2_10_0" index="0" speed="13.89" length="21.09" shape="-10.40,-4.80 -3.63,-4.30 1.88,-3.20 6.45,-2.10 10.40,-1.60"/>
    </edge>
    <edge id=":C2_11" function="internal">
        <lane id=":C2_11_0" index="0" speed="9.26" length="10.03" shape="-10.40,-1.60 -5.15,-0.85 -1.40,1.40 -1.22,1.70"/>
    </edge>
    <edge id=":C2_15" function="internal">
        <lane id=":C2_15_0" index="0" speed="9.26" length="9.33" shape="-1.22,1.70 0.85,5.15 1.60,10.40"/>
    </edge>
    <edge id=":C3_0" function="internal">
        <lane id=":C3_0_0" index="0" speed="7.33" length="11.73" shape="295.20,10.40 294.85,6.55 293.80,3.80 292.05,2.15 289.60,1.60"/>
    </edge>
    <edge id=":C3_1" function="internal">
        <lane id=":C3_1_0" index="0" speed="13.89" length="21.09" shape="295.20,10.40 295.70,3.63 296.80,-1.88 297.90,-6.45 298.40,-10.40"/>
    </edge>
    <edge id=":C3_2" function="internal">
        <lane id=":C3_2_0" index="0" speed="9.26" length="10.03" shape="298.40,10.40 299.15,5.15 301.40,1.40 301.70,1.22"/>
    </edge>
    <edge id=":C3_12" function="internal">
        <lane id=":C3_12_0" index="0" speed="9.26" length="9.33" shape="301.70,1.22 305.15,-0.85 310.40,-1.60"/>
    </edge>
    <edge id=":C3_3" function="internal">
        <lane id=":C3_3_0" index="0" speed="7.33" length="11.73" shape="310.40,4.80 306.55,5.15 303.80,6.20 302.15,7.95 301.60,10.40"/>
    </edge>
    <edge id=":C3_4" function="internal">
        <lane id=":C3_4_0" index="0" speed="13.89" length="21.09" shape="310.40,4.80 303.63,4.30 298.13,3.20 293.55,2.10 289.60,1.60"/>
    </edge>
    <edge id=":C3_5" function="internal">
        <lane id=":C3_5_0" index="0" speed="9.26" length="10.03" shape="310.40,1.60 305.15,0.85 301.40,-1.40 301.22,-1.70"/>
    </edge>
    <edge id=":C3_13" function="internal">
        <lane id=":C3_13_0" index="0" speed="9.26" length="9.33" shape="301.22,-1.70 299.15,-5.15 298.40,-10.40"/>
    </edge>
    <edge id=":C3_6" function="internal">
        <lane id=":C3_6_0" index="0" speed="7.33" length="11.73" shape="304.80,-10.40 305.15,-6.55 306.20,-3.80 307.95,-2.15 310.40,-1.60"/>
    </edge>
    <edge id=":C3_7" function="internal">
        <lane id=":C3_7_0" index="0" speed="13.89" length="21.09" shape="304.80,-10.40 304.30,-3.63 303.20,1.88 302.10,6.45 301.60,10.40"/>
    </edge>
    <edge id=":C3_8" function="internal">
        <lane id=":C3_8_0" index="0" speed="9.26" length="10.03" shape="301.60,-10.40 300.85,-5.15 298.60,-1.40 298.30,-1.22"/>
    </edge>
    <edge id=":C3_14" function="internal">
        <lane id=":C3_14_0" index="0" speed="9.26" length="9.33" shape="298.30,-1.22 294.85,0.85 289.60,1.60"/>
    </edge>
    <edge id=":C3_9" function="internal">
        <lane id=":C3_9_0" index="0" speed="7.33" length="11.73" shape="289.60,-4.80 293.45,-5.15 296.20,-6.20 297.85,-7.95 298.40,-10.40"/>
    </edge>
    <edge id=":C3_10" function="internal">
        <lane id=":C3_10_0" index="0" speed="13.89" length="21.09" shape="289.60,-4.80 296.37,-4.30 301.88,-3.20 306.45,-2.10 310.40,-1.60"/>
    </edge>
    <edge id=":C3_11" function="internal">
        <lane id=":C3_11_0" index="0" speed="9.26" length="10.03" shape="289.60,-1.60 294.85,-0.85 298.60,1.40 298.78,1.70"/>
    </edge>
    <edge id=":C3_15" function="internal">
        <lane id=":C3_15_0" index="0" speed="9.26" length="9.33" shape="298.78,1.70 300.85,5.15 301.60,10.40"/>
    </edge>
    <edge id=":C4_0" function="internal">
        <lane id=":C4_0_0" index="0" speed="7.33" length="11.73" shape="-304.80,-289.60 -305.15,-293.45 -306.20,-296.20 -307.95,-297.85 -310.40,-298.40"/>
    </edge>
    <edge id=":C4_1" function="internal">
        <lane id=":C4_1_0" index="0" speed="13.89" length="21.09" shape="-304.80,-289.60 -304.30,-296.37 -303.20,-301.88 -302.10,-306.45 -301.60,-310.40"/>
    </edge>
    <edge id=":C4_2" function="internal">
        <lane id=":C4_2_0" index="0" speed="9.26" length="10.03" shape="-301.60,-289.60 -300.85,-294.85 -298.60,-298.60 -298.30,-298.78"/>
    </edge>
    <edge id=":C4_12" function="internal">
        <lane id=":C4_12_0" index="0" speed="9.26" length="9.33" shape="-298.30,-298.78 -294.85,-300.85 -289.60,-301.60"/>
    </edge>
    <edge id=":C4_3" function="internal">
        <lane id=":C4_3_0" index="0" speed="7.33" length="11.73" shape="-289.60,-295.20 -293.45,-294.85 -296.20,-293.80 -297.85,-292.05 -298.40,-289.60"/>
    </edge>
    <edge id=":C4_4" function="internal">
        <lane id=":C4_4_0" index="0" speed="13.89" length="21.09" shape="-289.60,-295.20 -296.37,-295.70 -301.88,-296.80 -306.45,-297.90 -310.40,-298.40"/>
    </edge>
    <edge id=":C4_5" function="internal">
        <lane id=":C4_5_0" index="0" speed="9.26" length="10.03" shape="-289.60,-298.40 -294.85,-299.15 -298.60,-301.40 -298.78,-301.70"/>
    </edge>
    <edge id=":C4_13" function="internal">
        <lane id=":C4_13_0" index="0" speed="9.26" length="9.33" shape="-298.78,-301.70 -300.85,-305.15 -301.60,-310.40"/>
    </edge>
    <edge id=":C4_6" function="internal">
        <lane id=":C4_6_0" index="0" speed="7.33" length="11.73" shape="-295.20,-310.40 -294.85,-306.55 -293.80,-303.80 -292.05,-302.15 -289.60,-301.60"/>
    </edge>
    <edge id=":C4_7" function="internal">
        <lane id=":C4_7_0" index="0" speed="13.89" length="21.09" shape="-295.20,-310.40 -295.70,-303.63 -296.80,-298.13 -297.90,-293.55 -298.40,-289.60"/>
    </edge>
    <edge id=":C4_8" function="internal">
        <lane id=":C4_8_0" index="0" speed="9.26" length="19.35" shape="-298.40,-310.40 -299.15,-305.15 -301.40,-301.40 -305.15,-299.15 -310.40,-298.40"/>
    </edge>
    <edge id=":C4_9" function="internal">
        <lane id=":C4_9_0" index="0" speed="7.33" length="11.73" shape="-310.40,-304.80 -306.55,-305.15 -303.80,-306.20 -302.15,-307.95 -301.60,-310.40"/>
    </edge>
    <edge id=":C4_10" function="internal">
        <lane id=":C4_10_0" index="0" speed="13.89" length="21.09" shape="-310.40,-304.80 -303.63,-304.30 -298.13,-303.20 -293.55,-302.10 -289.60,-301.60"/>
    </edge>
    <edge id=":C4_11" function="internal">
        <lane id=":C4_11_0" index="0" speed="9.26" length="10.03" shape="-310.40,-301.60 -305.15,-300.85 -301.40,-298.60 -301.22,-298.30"/>
    </edge>
    <edge id=":C4_14" function="internal">
        <lane id=":C4_14_0" index="0" speed="9.26" length="9.33" shape="-301.22,-298.30 -299.15,-294.85 -298.40,-289.60"/>
    </edge>
    <edge id=":C5_0" function="internal">
        <lane id=":C5_0_0" index="0" speed="7.33" length="11.73" shape="-4.80,-289.60 -5.15,-293.45 -6.20,-296.20 -7.95,-297.85 -10.40,-298.40"/>
    </edge>
    <edge id=":C5_1" function="internal">
        <lane id=":C5_1_0" index="0" speed="13.89" length="21.09" shape="-4.80,-289.60 -4.30,-296.37 -3.20,-301.88 -2.10,-306.45 -1.60,-310.40"/>
    </edge>
    <edge id=":C5_2" function="internal">
        <lane id=":C5_2_0" index="0" speed="9.26" length="10.03" shape="-1.60,-289.60 -0.85,-294.85 1.40,-298.60 1.70,-298.78"/>
    </edge>
    <edge id=":C5_12" function="internal">
        <lane id=":C5_12_0" index="0" speed="9.26" length="9.33" shape="1.70,-298.78 5.15,-300.85 10.40,-301.60"/>
    </edge>
    <edge id=":C5_3" function="internal">
        <lane id=":C5_3_0" index="0" speed="7.33" length="11.73" shape="10.40,-295.20 6.55,-294.85 3.80,-293.80 2.15,-292.05 1.60,-289.60"/>
    </edge>
    <edge id=":C5_4" function="internal">
        <lane id=":C5_4_0" index="0" speed="13.89" length="21.09" shape="10.40,-295.20 3.63,-295.70 -1.88,-296.80 -6.45,-297.90 -10.40,-298.40"/>
    </edge>
    <edge id=":C5_5" function="internal">
        <lane id=":C5_5_0" index="0" speed="9.26" length="10.03" shape="10.40,-298.40 5.15,-299.15 1.40,-301.40 1.22,-301.70"/>
    </edge>
    <edge id=":C5_13" function="internal">
        <lane id=":C5_13_0" index="0" speed="9.26" length="9.33" shape="1.22,-301.70 -0.85,-305.15 -1.60,-310.40"/>
    </edge>
    <edge id=":C5_6" function="internal">
        <lane id=":C5_6_0" index="0" speed="7.33" length="11.73" shape="4.80,-310.40 5.15,-306.55 6.20,-303.80 7.95,-302.15 10.40,-301.60"/>
    </edge>
    <edge id=":C5_7" function="internal">
        <lane id=":C5_7_0" index="0" speed="13.89" length="21.09" shape="4.80,-310.40 4.30,-303.63 3.20,-298.13 2.10,-293.55 1.60,-289.60"/>
    </edge>
    <edge id=":C5_8" function="internal">
        <lane id=":C5_8_0" index="0" speed="9.26" length="10.03" shape="1.60,-310.40 0.85,-305.15 -1.40,-301.40 -1.70,-301.22"/>
    </edge>
    <edge id=":C5_14" function="internal">
        <lane id=":C5_14_0" index="0" speed="9.26" length="9.33" shape="-1.70,-301.22 -5.15,-299.15 -10.40,-298.40"/>
    </edge>
    <edge id=":C5_9" function="internal">
        <lane id=":C5_9_0" index="0" speed="7.33" length="11.73" shape="-10.40,-304.80 -6.55,-305.15 -3.80,-306.20 -2.15,-307.95 -1.60,-310.40"/>
    </edge>
    <edge id=":C5_10" function="internal">
        <lane id=":C5_10_0" index="0" speed="13.89" length="21.09" shape="-10.40,-304.80 -3.63,-304.30 1.88,-303.20 6.45,-302.10 10.40,-301.60"/>
    </edge>
    <edge id=":C5_11" function="internal">
        <lane id=":C5_11_0" index="0" speed="9.26" length="10.03" shape="-10.40,-301.60 -5.15,-300.85 -1.40,-298.60 -1.22,-298.30"/>
    </edge>
    <edge id=":C5_15" function="internal">
        <lane id=":C5_15_0" index="0" speed="9.26" length="9.33" shape="-1.22,-298.30 0.85,-294.85 1.60,-289.60"/>
    </edge>
    <edge id=":C6_0" function="internal">
        <lane id=":C6_0_0" index="0" speed="7.33" length="11.73" shape="295.20,-289.60 294.85,-293.45 293.80,-296.20 292.05,-297.85 289.60,-298.40"/>
    </edge>
    <edge id=":C6_1" function="internal">
        <lane id=":C6_1_0" index="0" speed="13.89" length="21.09" shape="295.20,-289.60 295.70,-296.37 296.80,-301.88 297.90,-306.45 298.40,-310.40"/>
    </edge>
    <edge id=":C6_2" function="internal">
        <lane id=":C6_2_0" index="0" speed="9.26" length="10.03" shape="298.40,-289.60 299.15,-294.85 301.40,-298.60 301.70,-298.78"/>
    </edge>
    <edge id=":C6_12" function="internal">
        <lane id=":C6_12_0" index="0" speed="9.26" length="9.33" shape="301.70,-298.78 305.15,-300.85 310.40,-301.60"/>
    </edge>
    <edge id=":C6_3" function="internal">
        <lane id=":C6_3_0" index="0" speed="7.33" length="11.73" shape="310.40,-295.20 306.55,-294.85 303.80,-293.80 302.15,-292.05 301.60,-289.60"/>
    </edge>
    <edge id=":C6_4" function="internal">
        <lane id=":C6_4_0" index="0" speed="13.89" length="21.09" shape="310.40,-295.20 303.63,-295.70 298.13,-296.80 293.55,-297.90 289.60,-298.40"/>
    </edge>
    <edge id=":C6_5" function="internal">
        <lane id=":C6_5_0" index="0" speed="9.26" length="10.03" shape="310.40,-298.40 305.15,-299.15 301.40,-301.40 301.22,-301.70"/>
    </edge>
    <edge id=":C6_13" function="internal">
        <lane id=":C6_13_0" index="0" speed="9.26" length="9.33" shape="301.22,-301.70 299.15,-305.15 298.40,-310.40"/>
    </edge>
    <edge id=":C6_6" function="internal">
        <lane id=":C6_6_0" index="0" speed="7.33" length="11.73" shape="304.80,-310.40 305.15,-306.55 306.20,-303.80 307.95,-302.15 310.40,-301.60"/>
    </edge>
    <edge id=":C6_7" function="internal">
        <lane id=":C6_7_0" index="0" speed="13.89" length="21.09" shape="304.80,-310.40 304.30,-303.63 303.20,-298.13 302.10,-293.55 301.60,-289.60"/>
    </edge>
    <edge id=":C6_8" function="internal">
        <lane id=":C6_8_0" index="0" speed="9.26" length="10.03" shape="301.60,-310.40 300.85,-305.15 298.60,-301.40 298.30,-301.22"/>
    </edge>
    <edge id=":C6_14" function="internal">
        <lane id=":C6_14_0" index="0" speed="9.26" length="9.33" shape="298.30,-301.22 294.85,-299.15 289.60,-298.40"/>
    </edge>
    <edge id=":C6_9" function="internal">
        <lane id=":C6_9_0" index="0" speed="7.33" length="11.73" shape="289.60,-304.80 293.45,-305.15 296.20,-306.20 297.85,-307.95 298.40,-310.40"/>
    </edge>
    <edge id=":C6_10" function="internal">
        <lane id=":C6_10_0" index="0" speed="13.89" length="21.09" shape="289.60,-304.80 296.37,-304.30 301.88,-303.20 306.45,-302.10 310.40,-301.60"/>
    </edge>
    <edge id=":C6_11" function="internal">
        <lane id=":C6_11_0" index="0" speed="9.26" length="10.03" shape="289.60,-301.60 294.85,-300.85 298.60,-298.60 298.78,-298.30"/>
    </edge>
    <edge id=":C6_15" function="internal">
        <lane id=":C6_15_0" index="0" speed="9.26" length="9.33" shape="298.78,-298.30 300.85,-294.85 301.60,-289.60"/>
    </edge>
    <edge id=":C7_0" function="internal">
        <lane id=":C7_0_0" index="0" speed="7.33" length="11.73" shape="-304.80,-589.60 -305.15,-593.45 -306.20,-596.20 -307.95,-597.85 -310.40,-598.40"/>
    </edge>
    <edge id=":C7_1" function="internal">
        <lane id=":C7_1_0" index="0" speed="13.89" length="21.09" shape="-304.80,-589.60 -304.30,-596.37 -303.20,-601.88 -302.10,-606.45 -301.60,-610.40"/>
    </edge>
    <edge id=":C7_2" function="internal">
        <lane id=":C7_2_0" index="0" speed="9.26" length="10.03" shape="-301.60,-589.60 -300.85,-594.85 -298.60,-598.60 -298.30,-598.78"/>
    </edge>
    <edge id=":C7_12" function="internal">
        <lane id=":C7_12_0" index="0" speed="9.26" length="9.33" shape="-298.30,-598.78 -294.85,-600.85 -289.60,-601.60"/>
    </edge>
    <edge id=":C7_3" function="internal">
        <lane id=":C7_3_0" index="0" speed="7.33" length="11.73" shape="-289.60,-595.20 -293.45,-594.85 -296.20,-593.80 -297.85,-592.05 -298.40,-589.60"/>
    </edge>
    <edge id=":C7_4" function="internal">
        <lane id=":C7_4_0" index="0" speed="13.89" length="21.09" shape="-289.60,-595.20 -296.37,-595.70 -301.88,-596.80 -306.45,-597.90 -310.40,-598.40"/>
    </edge>
    <edge id=":C7_5" function="internal">
        <lane id=":C7_5_0" index="0" speed="9.26" length="10.03" shape="-289.60,-598.40 -294.85,-599.15 -298.60,-601.40 -298.78,-601.70"/>
    </edge>
    <edge id=":C7_13" function="internal">
        <lane id=":C7_13_0" index="0" speed="9.26" length="9.33" shape="-298.78,-601.70 -300.85,-605.15 -301.60,-610.40"/>
    </edge>
    <edge id=":C7_6" function="internal">
        <lane id=":C7_6_0" index="0" speed="7.33" length="11.73" shape="-295.20,-610.40 -294.85,-606.55 -293.80,-603.80 -292.05,-602.15 -289.60,-601.60"/>
    </edge>
    <edge id=":C7_7" function="internal">
        <lane id=":C7_7_0" index="0" speed="13.89" length="21.09" shape="-295.20,-610.40 -295.70,-603.63 -296.80,-598.13 -297.90,-593.55 -298.40,-589.60"/>
    </edge>
    <edge id=":C7_8" function="internal">
        <lane id=":C7_8_0" index="0" speed="9.26" length="10.03" shape="-298.40,-610.40 -299.15,-605.15 -301.40,-601.40 -301.70,-601.22"/>
    </edge>
    <edge id=":C7_14" function="internal">
        <lane id=":C7_14_0" index="0" speed="9.26" length="9.33" shape="-301.70,-601.22 -305.15,-599.15 -310.40,-598.40"/>
    </edge>
    <edge id=":C7_9" function="internal">
        <lane id=":C7_9_0" index="0" speed="7.33" length="11.73" shape="-310.40,-604.80 -306.55,-605.15 -303.80,-606.20 -302.15,-607.95 -301.60,-610.40"/>
    </edge>
    <edge id=":C7_10" function="internal">
        <lane id=":C7_10_0" index="0" speed="13.89" length="21.09" shape="-310.40,-604.80 -303.63,-604.30 -298.13,-603.20 -293.55,-602.10 -289.60,-601.60"/>
    </edge>
    <edge id=":C7_11" function="internal">
        <lane id=":C7_11_0" index="0" speed="9.26" length="10.03" shape="-310.40,-601.60 -305.15,-600.85 -301.40,-598.60 -301.22,-598.30"/>
    </edge>
    <edge id=":C7_15" function="internal">
        <lane id=":C7_15_0" index="0" speed="9.26" length="9.33" shape="-301.22,-598.30 -299.15,-594.85 -298.40,-589.60"/>
    </edge>
    <edge id=":C8_0" function="internal">
        <lane id=":C8_0_0" index="0" speed="7.33" length="11.73" shape="-4.80,-589.60 -5.15,-593.45 -6.20,-596.20 -7.95,-597.85 -10.40,-598.40"/>
    </edge>
    <edge id=":C8_1" function="internal">
        <lane id=":C8_1_0" index="0" speed="13.89" length="21.09" shape="-4.80,-589.60 -4.30,-596.37 -3.20,-601.88 -2.10,-606.45 -1.60,-610.40"/>
    </edge>
    <edge id=":C8_2" function="internal">
        <lane id=":C8_2_0" index="0" speed="9.26" length="10.03" shape="-1.60,-589.60 -0.85,-594.85 1.40,-598.60 1.70,-598.78"/>
    </edge>
    <edge id=":C8_12" function="internal">
        <lane id=":C8_12_0" index="0" speed="9.26" length="9.33" shape="1.70,-598.78 5.15,-600.85 10.40,-601.60"/>
    </edge>
    <edge id=":C8_3" function="internal">
        <lane id=":C8_3_0" index="0" speed="7.33" length="11.73" shape="10.40,-595.20 6.55,-594.85 3.80,-593.80 2.15,-592.05 1.60,-589.60"/>
    </edge>
    <edge id=":C8_4" function="internal">
        <lane id=":C8_4_0" index="0" speed="13.89" length="21.09" shape="10.40,-595.20 3.63,-595.70 -1.88,-596.80 -6.45,-597.90 -10.40,-598.40"/>
    </edge>
    <edge id=":C8_5" function="internal">
        <lane id=":C8_5_0" index="0" speed="9.26" length="10.03" shape="10.40,-598.40 5.15,-599.15 1.40,-601.40 1.22,-601.70"/>
    </edge>
    <edge id=":C8_13" function="internal">
        <lane id=":C8_13_0" index="0" speed="9.26" length="9.33" shape="1.22,-601.70 -0.85,-605.15 -1.60,-610.40"/>
    </edge>
    <edge id=":C8_6" function="internal">
        <lane id=":C8_6_0" index="0" speed="7.33" length="11.73" shape="4.80,-610.40 5.15,-606.55 6.20,-603.80 7.95,-602.15 10.40,-601.60"/>
    </edge>
    <edge id=":C8_7" function="internal">
        <lane id=":C8_7_0" index="0" speed="13.89" length="21.09" shape="4.80,-610.40 4.30,-603.63 3.20,-598.13 2.10,-593.55 1.60,-589.60"/>
    </edge>
    <edge id=":C8_8" function="internal">
        <lane id=":C8_8_0" index="0" speed="9.26" length="10.03" shape="1.60,-610.40 0.85,-605.15 -1.40,-601.40 -1.70,-601.22"/>
    </edge>
    <edge id=":C8_14" function="internal">
        <lane id=":C8_14_0" index="0" speed="9.26" length="9.33" shape="-1.70,-601.22 -5.15,-599.15 -10.40,-598.40"/>
    </edge>
    <edge id=":C8_9" function="internal">
        <lane id=":C8_9_0" index="0" speed="7.33" length="11.73" shape="-10.40,-604.80 -6.55,-605.15 -3.80,-606.20 -2.15,-607.95 -1.60,-610.40"/>
    </edge>
    <edge id=":C8_10" function="internal">
        <lane id=":C8_10_0" index="0" speed="13.89" length="21.09" shape="-10.40,-604.80 -3.63,-604.30 1.88,-603.20 6.45,-602.10 10.40,-601.60"/>
    </edge>
    <edge id=":C8_11" function="internal">
        <lane id=":C8_11_0" index="0" speed="9.26" length="10.03" shape="-10.40,-601.60 -5.15,-600.85 -1.40,-598.60 -1.22,-598.30"/>
    </edge>
    <edge id=":C8_15" function="internal">
        <lane id=":C8_15_0" index="0" speed="9.26" length="9.33" shape="-1.22,-598.30 0.85,-594.85 1.60,-589.60"/>
    </edge>
    <edge id=":C9_0" function="internal">
        <lane id=":C9_0_0" index="0" speed="7.33" length="11.73" shape="295.20,-589.60 294.85,-593.45 293.80,-596.20 292.05,-597.85 289.60,-598.40"/>
    </edge>
    <edge id=":C9_1" function="internal">
        <lane id=":C9_1_0" index="0" speed="13.89" length="21.09" shape="295.20,-589.60 295.70,-596.37 296.80,-601.88 297.90,-606.45 298.40,-610.40"/>
    </edge>
    <edge id=":C9_2" function="internal">
        <lane id=":C9_2_0" index="0" speed="9.26" length="10.03" shape="298.40,-589.60 299.15,-594.85 301.40,-598.60 301.70,-598.78"/>
    </edge>
    <edge id=":C9_12" function="internal">
        <lane id=":C9_12_0" index="0" speed="9.26" length="9.33" shape="301.70,-598.78 305.15,-600.85 310.40,-601.60"/>
    </edge>
    <edge id=":C9_3" function="internal">
        <lane id=":C9_3_0" index="0" speed="7.33" length="11.73" shape="310.40,-595.20 306.55,-594.85 303.80,-593.80 302.15,-592.05 301.60,-589.60"/>
    </edge>
    <edge id=":C9_4" function="internal">
        <lane id=":C9_4_0" index="0" speed="13.89" length="21.09" shape="310.40,-595.20 303.63,-595.70 298.13,-596.80 293.55,-597.90 289.60,-598.40"/>
    </edge>
    <edge id=":C9_5" function="internal">
        <lane id=":C9_5_0" index="0" speed="9.26" length="10.03" shape="310.40,-598.40 305.15,-599.15 301.40,-601.40 301.22,-601.70"/>
    </edge>
    <edge id=":C9_13" function="internal">
        <lane id=":C9_13_0" index="0" speed="9.26" length="9.33" shape="301.22,-601.70 299.15,-605.15 298.40,-610.40"/>
    </edge>
    <edge id=":C9_6" function="internal">
        <lane id=":C9_6_0" index="0" speed="7.33" length="11.73" shape="304.80,-610.40 305.15,-606.55 306.20,-603.80 307.95,-602.15 310.40,-601.60"/>
    </edge>
    <edge id=":C9_7" function="internal">
        <lane id=":C9_7_0" index="0" speed="13.89" length="21.09" shape="304.80,-610.40 304.30,-603.63 303.20,-598.13 302.10,-593.55 301.60,-589.60"/>
    </edge>
    <edge id=":C9_8" function="internal">
        <lane id=":C9_8_0" index="0" speed="9.26" length="10.03" shape="301.60,-610.40 300.85,-605.15 298.60,-601.40 298.30,-601.22"/>
    </edge>
    <edge id=":C9_14" function="internal">
        <lane id=":C9_14_0" index="0" speed="9.26" length="9.33" shape="298.30,-601.22 294.85,-599.15 289.60,-598.40"/>
    </edge>
    <edge id=":C9_9" function="internal">
        <lane id=":C9_9_0" index="0" speed="7.33" length="11.73" shape="289.60,-604.80 293.45,-605.15 296.20,-606.20 297.85,-607.95 298.40,-610.40"/>
    </edge>
    <edge id=":C9_10" function="internal">
        <lane id=":C9_10_0" index="0" speed="13.89" length="21.09" shape="289.60,-604.80 296.37,-604.30 301.88,-603.20 306.45,-602.10 310.40,-601.60"/>
    </edge>
    <edge id=":C9_11" function="internal">
        <lane id=":C9_11_0" index="0" speed="9.26" length="10.03" shape="289.60,-601.60 294.85,-600.85 298.60,-598.60 298.78,-598.30"/>
    </edge>
    <edge id=":C9_15" function="internal">
        <lane id=":C9_15_0" index="0" speed="9.26" length="9.33" shape="298.78,-598.30 300.85,-594.85 301.60,-589.60"/>
    </edge>
    <edge id=":W_1_0" function="internal">
        <lane id=":W_1_0_0" index="0" speed="13.89" length="8.40" shape="-196.00,1.60 -198.46,2.10 -200.00,3.20 -201.54,4.30 -204.00,4.80"/>
        <lane id=":W_1_0_1" index="1" speed="13.89" length="8.40" shape="-196.00,1.60 -204.00,1.60"/>
    </edge>
    <edge id=":W_1_2" function="internal">
        <lane id=":W_1_2_0" index="0" speed="13.89" length="8.00" shape="-204.00,-1.60 -196.00,-1.60"/>
    </edge>
    <edge id=":gne21_0" function="internal">
        <lane id=":gne21_0_0" index="0" speed="13.89" length="8.40" shape="298.40,-196.00 297.90,-198.46 296.80,-200.00 295.70,-201.54 295.20,-204.00"/>
        <lane id=":gne21_0_1" index="1" speed="13.89" length="8.40" shape="298.40,-196.00 298.40,-204.00"/>
    </edge>
    <edge id=":gne21_2" function="internal">
        <lane id=":gne21_2_0" index="0" speed="13.89" length="8.00" shape="301.60,-204.00 301.60,-196.00"/>
    </edge>
    <edge id=":gne23_0" function="internal">
        <lane id=":gne23_0_0" index="0" speed="13.89" length="8.40" shape="-1.60,-196.00 -2.10,-198.46 -3.20,-200.00 -4.30,-201.54 -4.80,-204.00"/>