<routes>
        <vType id="Cartype" accel="0.8" decel="4.5" sigma="0.5" length="5" minGap="2.5" maxSpeed="16.67"         guiShape="passenger"/>
         
        <route id="carflow1" edges="2NS1 2NS1_1" />
        <route id="carflow2" edges="2SN1 2SN1_1" />
        <route id="carflow3" edges="2WO1 2WO1_1" />
        <route id="carflow4" edges="2OW1 2OW1_1" />
    <vehicle id="0" type="Cartype" route="carflow3" depart="281" />
    <vehicle id="1" type="Cartype" route="carflow4" depart="345" />
    <vehicle id="2" type="Cartype" route="carflow2" depart="368" />
    <vehicle id="3" type="Cartype" route="carflow3" depart="443" />
    <vehicle id="4" type="Cartype" route="carflow4" depart="448" />
    <vehicle id="5" type="Cartype" route="carflow3" depart="577" />
    <vehicle id="6" type="Cartype" route="carflow1" depart="680" />
    <vehicle id="7" type="Cartype" route="carflow3" depart="705" />
    <vehicle id="8" type="Cartype" route="carflow4" depart="719" />
    <vehicle id="9" type="Cartype" route="carflow1" depart="733" />
    <vehicle id="10" type="Cartype" route="carflow1" depart="739" />
    <vehicle id="11" type="Cartype" route="carflow1" depart="1010" />
    <vehicle id="12" type="Cartype" route="carflow4" depart="1260" />
    <vehicle id="13" type="Cartype" route="carflow1" depart="1344" />
    <vehicle id="14" type="Cartype" route="carflow1" depart="1371" />
    <vehicle id="15" type="Cartype" route="carflow3" depart="1389" />
    <vehicle id="16" type="Cartype" route="carflow4" depart="1543" />
    <vehicle id="17" type="Cartype" route="carflow1" depart="1631" />
    <vehicle id="18" type="Cartype" route="carflow4" depart="2016" />
    <vehicle id="19" type="Cartype" route="carflow4" depart="2306" />
    <vehicle id="20" type="Cartype" route="carflow1" depart="2312" />
    <vehicle id="21" type="Cartype" route="carflow4" depart="2319" />
    <vehicle id="22" type="Cartype" route="carflow4" depart="2424" />
    <vehicle id="23" type="Cartype" route="carflow4" depart="2529" />
    <vehicle id="24" type="Cartype" route="carflow2" depart="2537" />
    <vehicle id="25" type="Cartype" route="carflow1" depart="2762" />
    <vehicle id="26" type="Cartype" route="carflow4" depart="2985" />
    <vehicle id="27" type="Cartype" route="carflow1" depart="2986" />
    <vehicle id="28" type="Cartype" route="carflow1" depart="3002" />
    <vehicle id="29" type="Cartype" route="carflow1" depart="3207" />
    <vehicle id="30" type="Cartype" route="carflow1" depart="3294" />
    <vehicle id="31" type="Cartype" route="carflow1" depart="3411" />
    <vehicle id="32" type="Cartype" route="carflow1" depart="3458" />
    <vehicle id="33" type="Cartype" route="carflow2" depart="3532" />
</routes>
