<routes>
        <vType id="Cartype" accel="0.8" decel="4.5" sigma="0.5" length="5" minGap="2.5" maxSpeed="16.67"         guiShape="passenger"/>
         
        <route id="carflow1" edges="2NS1 2NS1_1" />
        <route id="carflow2" edges="2SN1 2SN1_1" />
        <route id="carflow3" edges="2WO1 2WO1_1" />
        <route id="carflow4" edges="2OW1 2OW1_1" />
    <vehicle id="0" type="Cartype" route="carflow1" depart="65" />
    <vehicle id="1" type="Cartype" route="carflow2" depart="121" />
    <vehicle id="2" type="Cartype" route="carflow4" depart="423" />
    <vehicle id="3" type="Cartype" route="carflow1" depart="484" />
    <vehicle id="4" type="Cartype" route="carflow2" depart="528" />
    <vehicle id="5" type="Cartype" route="carflow1" depart="704" />
    <vehicle id="6" type="Cartype" route="carflow4" depart="948" />
    <vehicle id="7" type="Cartype" route="carflow1" depart="1368" />
    <vehicle id="8" type="Cartype" route="carflow4" depart="1627" />
    <vehicle id="9" type="Cartype" route="carflow3" depart="1664" />
    <vehicle id="10" type="Cartype" route="carflow3" depart="1692" />
    <vehicle id="11" type="Cartype" route="carflow4" depart="1767" />
    <vehicle id="12" type="Cartype" route="carflow4" depart="1799" />
    <vehicle id="13" type="Cartype" route="carflow3" depart="1831" />
    <vehicle id="14" type="Cartype" route="carflow3" depart="2112" />
    <vehicle id="15" type="Cartype" route="carflow4" depart="2118" />
    <vehicle id="16" type="Cartype" route="carflow4" depart="2192" />
    <vehicle id="17" type="Cartype" route="carflow2" depart="2274" />
    <vehicle id="18" type="Cartype" route="carflow4" depart="2383" />
    <vehicle id="19" type="Cartype" route="carflow1" depart="2444" />
    <vehicle id="20" type="Cartype" route="carflow3" depart="2603" />
    <vehicle id="21" type="Cartype" route="carflow3" depart="2642" />
    <vehicle id="22" type="Cartype" route="carflow4" depart="2754" />
    <vehicle id="23" type="Cartype" route="carflow4" depart="3010" />
    <vehicle id="24" type="Cartype" route="carflow2" depart="3028" />
    <vehicle id="25" type="Cartype" route="carflow1" depart="3089" />
    <vehicle id="26" type="Cartype" route="carflow2" depart="3140" />
    <vehicle id="27" type="Cartype" route="carflow4" depart="3369" />
    <vehicle id="28" type="Cartype" route="carflow2" depart="3379" />
    <vehicle id="29" type="Cartype" route="carflow2" depart="3481" />
    <vehicle id="30" type="Cartype" route="carflow4" depart="3572" />
    <vehicle id="31" type="Cartype" route="carflow1" depart="3578" />
    <vehicle id="32" type="Cartype" route="carflow4" depart="3597" />
</routes>
