<routes>
        <vType id="Cartype" accel="0.8" decel="4.5" sigma="0.5" length="5" minGap="2.5" maxSpeed="16.67"         guiShape="passenger"/>
         
        <route id="carflow1" edges="2NS1 2NS1_1" />
        <route id="carflow2" edges="2SN1 2SN1_1" />
        <route id="carflow3" edges="2WO1 2WO1_1" />
        <route id="carflow4" edges="2OW1 2OW1_1" />
    <vehicle id="0" type="Cartype" route="carflow3" depart="178" />
    <vehicle id="1" type="Cartype" route="carflow2" depart="325" />
    <vehicle id="2" type="Cartype" route="carflow3" depart="409" />
    <vehicle id="3" type="Cartype" route="carflow1" depart="534" />
    <vehicle id="4" type="Cartype" route="carflow2" depart="725" />
    <vehicle id="5" type="Cartype" route="carflow4" depart="829" />
    <vehicle id="6" type="Cartype" route="carflow3" depart="1235" />
    <vehicle id="7" type="Cartype" route="carflow2" depart="1288" />
    <vehicle id="8" type="Cartype" route="carflow2" depart="1439" />
    <vehicle id="9" type="Cartype" route="carflow3" depart="1609" />
    <vehicle id="10" type="Cartype" route="carflow1" depart="1684" />
    <vehicle id="11" type="Cartype" route="carflow3" depart="1725" />
    <vehicle id="12" type="Cartype" route="carflow1" depart="1907" />
    <vehicle id="13" type="Cartype" route="carflow3" depart="1990" />
    <vehicle id="14" type="Cartype" route="carflow4" depart="2136" />
    <vehicle id="15" type="Cartype" route="carflow4" depart="2186" />
    <vehicle id="16" type="Cartype" route="carflow2" depart="2205" />
    <vehicle id="17" type="Cartype" route="carflow2" depart="2351" />
    <vehicle id="18" type="Cartype" route="carflow2" depart="2387" />
    <vehicle id="19" type="Cartype" route="carflow2" depart="2575" />
    <vehicle id="20" type="Cartype" route="carflow3" depart="2716" />
    <vehicle id="21" type="Cartype" route="carflow1" depart="2748" />
    <vehicle id="22" type="Cartype" route="carflow1" depart="2936" />
    <vehicle id="23" type="Cartype" route="carflow2" depart="2953" />
    <vehicle id="24" type="Cartype" route="carflow4" depart="3004" />
    <vehicle id="25" type="Cartype" route="carflow2" depart="3078" />
    <vehicle id="26" type="Cartype" route="carflow2" depart="3235" />
    <vehicle id="27" type="Cartype" route="carflow3" depart="3350" />
    <vehicle id="28" type="Cartype" route="carflow2" depart="3375" />
    <vehicle id="29" type="Cartype" route="carflow3" depart="3433" />
</routes>
